
This file was generated by AeroDyn (v13.00.01a-bjj, 16-Feb-2012) on 22-Feb-2012 at 09:21:51.

Inputs read in from the AeroDyn input file:
AWT-27CR aerodynamic parameters for FAST certification test #2.

SI	Units for input and output         
BEDDOES	Dynamic stall model                 [Beddoes]
NO_CM	Aerodynamic pitching moment model   [NO Pitching Moments calculated]
EQUIL	Inflow model                        [Equilibrium]
SWIRL	Induction factor model              [Normal and Radial flow induction factors calculated]
5.00000E-03	Convergence tolerance for induction factor
PRAND	Tip-loss model                      [Prandtl model]
NONE	Hub-loss model                      [NO hub-loss calculated]
".\Wind/AWT27/NoShr_12.wnd"	  Wind file name
42.672	Wind reference (hub) height, m
0	Tower shadow centerline velocity deficit
1	Tower shadow half width, m
2.432	Tower shadow reference point, m
1.225	Air density, kg/m^3
1.46390E-05	Kinematic air viscosity, m^2/sec
4.00000E-03	Time interval for aerodynamic calculations, sec
10	Number of airfoil files used. Files listed below:
".\AeroData/AWT27/AWT27_05.dat"
".\AeroData/AWT27/AWT27_15.dat"
".\AeroData/AWT27/AWT27_25.dat"
".\AeroData/AWT27/AWT27_35.dat"
".\AeroData/AWT27/AWT27_45.dat"
".\AeroData/AWT27/AWT27_55.dat"
".\AeroData/AWT27/AWT27_65.dat"
".\AeroData/AWT27/AWT27_75.dat"
".\AeroData/AWT27/AWT27_85.dat"
".\AeroData/AWT27/AWT27_95.dat"
10	Number of blade elements per blade

     Element     RELM       Twist       DR        Chord      NFoil     Print?    Tip-loss   Hub-loss 
       (-)        (m)       (deg)       (m)        (m)        (-)     (Yes/No)   constant   constant 
   ---------- ---------- ---------- ---------- ---------- ---------- ---------- ---------- ----------
            1    1.81265    5.80000    1.25730    0.85900          1         No    6.58944    0.53095
            2    3.06995    5.20000    1.25730    1.04500          2         No    3.48118    1.59286
            3    4.32725    4.66000    1.25730    1.14500          3         No    2.17916    2.65477
            4    5.58455    3.73000    1.25730    1.12400          4         No    1.46340    3.71668
            5    6.84185    2.64000    1.25730    1.05400          5         No    1.01071    4.77859
            6    8.09915    1.59000    1.25730    0.97600          6         No    0.69857    5.84050
            7    9.35645    0.73000    1.25730    0.88500          7         No    0.47032    6.90241
            8   10.61375    0.23000    1.25730    0.77500          8         No    0.29615    7.96432
            9   11.87105    0.08000    1.25730    0.65100          9         No    0.15887    9.02623
           10   13.12835    0.03000    1.25730    0.49300         10         No    0.04788   10.08813


 Rotor radius     =  13.654 m
 Hub radius       =   1.175 m
 Number of blades =   2

  BEDDOES DYNAMIC STALL PARAMETERS:

   CN SLOPE           6.0090     6.0190     6.0280     6.0340     6.1280     6.2040     6.2710     6.2580     6.1560     6.1180
   STALL CN (UPPER)   1.8090     1.8130     1.8170     1.8200     1.7430     1.6770     1.6180     1.7910     1.7490     1.8400
   STALL CN (LOWER)  -1.0000    -1.0000    -1.0000    -1.0000    -1.0000    -1.0000    -1.0000    -1.0000    -1.0000    -1.0000
   ZERO LIFT AOA     -4.2450    -4.2560    -4.2730    -4.2850    -3.2970    -2.4840    -1.7820    -1.4010    -1.2780    -1.2320
   MIN DRAG AOA       0.0000     0.0000     0.0000     0.0000     0.0000     0.0000     0.0000     0.0000     0.0000     0.0000
   MIN DRAG COEFF     0.0107     0.0101     0.0094     0.0090     0.0080     0.0071     0.0064     0.0062     0.0064     0.0065


     VORTEX TRANSIT TIME FROM LE TO TE    11.00000    
     PRESSURE TIME CONSTANT               1.700000    
     VORTEX TIME CONSTANT                 6.000000    
     F-PARAMETER TIME CONSTANT            3.000000    
