
This file was generated by AeroDyn (v13.00.01a-bjj, 16-Feb-2012) on 17-Feb-2012 at 21:31:28.

Inputs read in from the AeroDyn input file:
SWRT rotor aerodynamic parameters for FAST certification test #17.

SI	Units for input and output         
BEDDOES	Dynamic stall model                 [Beddoes]
NO_CM	Aerodynamic pitching moment model   [NO Pitching Moments calculated]
DYNIN	Inflow model                        [Dynamic Inflow]
SWIRL	Induction factor model              [Normal and Radial flow induction factors calculated]
5.00000E-03	Convergence tolerance for induction factor
[Not Used]	Tip-loss model                     
[Not Used]	Hub-loss model                     
".\Wind\SWRT\35m_16mps"	  Wind file name
34.619	Wind reference (hub) height, m
0	Tower shadow centerline velocity deficit
9999.9	Tower shadow half width, m
9999.9	Tower shadow reference point, m
1	Air density, kg/m^3
1.51000E-05	Kinematic air viscosity, m^2/sec
1.00000E-03	Time interval for aerodynamic calculations, sec
4	Number of airfoil files used. Files listed below:
".\AeroData\SWRT\TailPlate.dat"
".\AeroData\SWRT\SH3052Mod_AllRe_Hanley.dat"
".\AeroData\SWRT\SH3052Mod_AllRe_Elem14_Hanley.dat"
".\AeroData\SWRT\SH3052Mod_AllRe_Elem15_Hanley.dat"
15	Number of blade elements per blade

     Element     RELM       Twist       DR        Chord      NFoil     Print?    Tip-loss   Hub-loss 
       (-)        (m)       (deg)       (m)        (m)        (-)     (Yes/No)   constant   constant 
   ---------- ---------- ---------- ---------- ---------- ---------- ---------- ---------- ----------
            1    0.38960    0.00000    0.17310    0.21300          2         No    9.66529    0.42873
            2    0.56270    0.00000    0.17310    0.21300          2         No    6.23058    1.28567
            3    0.73580    0.00000    0.17310    0.21300          2         No    4.41193    2.14260
            4    0.90900    0.00000    0.17310    0.21300          2         No    3.28547    3.00004
            5    1.08210    0.00000    0.17310    0.21300          2         No    2.51996    3.85697
            6    1.25520    0.00000    0.17310    0.21300          2         No    1.96558    4.71391
            7    1.42840    0.00000    0.17310    0.21300          2         No    1.54536    5.57134
            8    1.60150    0.00000    0.17310    0.21300          2         No    1.21620    6.42828
            9    1.77460    0.00000    0.17310    0.21300          2         No    0.95125    7.28522
           10    1.94780    0.00000    0.17310    0.21300          2         No    0.73329    8.14265
           11    2.12090    0.00000    0.17310    0.21300          2         No    0.55101    8.99959
           12    2.29400    0.00000    0.17310    0.21300          2         No    0.39625    9.85652
           13    2.46720    0.00000    0.17310    0.21300          2         No    0.26313   10.71396
           14    2.64030    1.60000    0.17310    0.20100          3         No    0.14754   11.57090
           15    2.81340    3.20000    0.17310    0.18100          4         No    0.04617   12.42783
MULTI    Multiple airfoil tables used

 Rotor radius     =   2.900 m
 Hub radius       =   0.303 m
 Number of blades =   3

  BEDDOES DYNAMIC STALL PARAMETERS:

   CN SLOPE           2.7155     6.2490     6.0750     5.9770
   STALL CN (UPPER)   1.8588     2.3070     2.0460     1.8870
   STALL CN (LOWER)  -0.8000    -0.8000    -0.8000    -0.8000
   ZERO LIFT AOA     -4.2300   -10.1520    -7.3000    -6.0930
   MIN DRAG AOA       0.0000    -3.0000    -3.0000    -3.0000
   MIN DRAG COEFF     0.0100     0.0171     0.0106     0.0108


     VORTEX TRANSIT TIME FROM LE TO TE    11.00000    
     PRESSURE TIME CONSTANT               1.700000    
     VORTEX TIME CONSTANT                 6.000000    
     F-PARAMETER TIME CONSTANT            3.000000    
