
This file was generated by AeroDyn (v14.02.00c-mlb, 02-Oct-2013) on 03-Oct-2013 at 23:56:21.

Inputs read in from the AeroDyn input file:
AOC aerodynamic parameters for FAST Certification Test #6.

SI	Units for input and output         
STEADY	Dynamic stall model                 [NO Dynamic stall]
NO_CM	Aerodynamic pitching moment model   [NO Pitching Moments calculated]
EQUIL	Inflow model                        [Equilibrium]
SWIRL	Induction factor model              [Normal and Radial flow induction factors calculated]
5.00000E-03	Convergence tolerance for induction factor
PRAND	Tip-loss model                      [Prandtl model]
PRAND	Hub-loss model                      [Prandtl model]
".\AOC/Wind/NoShr_12.wnd"	  Wind file name
25	Wind reference (hub) height, m
0.3	Tower shadow centerline velocity deficit
0.2	Tower shadow half width, m
1.341	Tower shadow reference point, m
0.9526	Air density, kg/m^3
1.46390E-05	Kinematic air viscosity, m^2/sec
5.00000E-03	Time interval for aerodynamic calculations, sec
5	Number of airfoil files used. Files listed below:
".\AOC/AeroData/S814_1.DAT"
".\AOC/AeroData/S814_15.DAT"
".\AOC/AeroData/S812_15.DAT"
".\AOC/AeroData/S812_2.DAT"
".\AOC/AeroData/S813_15.DAT"
10	Number of blade elements per blade

     Element     RELM       Twist       DR        Chord      NFoil     Print?    Tip-loss   Hub-loss 
       (-)        (m)       (deg)       (m)        (m)        (-)     (Yes/No)   constant   constant 
   ---------- ---------- ---------- ---------- ---------- ---------- ---------- ---------- ----------
            1    0.51500    7.69000    0.47000    0.49400          1         No   20.31553    1.25893
            2    1.12400    5.04000    0.74800    0.57900          1         No    8.49555    4.52143
            3    1.87400    4.60000    0.75200    0.68000          1         No    4.49520    8.53929
            4    2.62400    4.26000    0.74800    0.74400          1         No    2.78163   12.55714
            5    3.37400    3.85000    0.75200    0.73800          2         No    1.82988   16.57500
            6    4.12000    3.15000    0.74000    0.67700          2         No    1.22694   20.57143
            7    4.87000    2.45000    0.76000    0.61600          3         No    0.80698   24.58928
            8    5.62000    1.75000    0.74000    0.55800          3         No    0.49911   28.60714
            9    6.37000    1.05000    0.76000    0.49700          5         No    0.26374   32.62500
           10    7.12000    0.35000    0.74000    0.43600          5         No    0.07795   36.64286


 Rotor radius     =   7.449 m
 Hub radius       =   0.278 m
 Number of blades =   3
