
This linearized model file was generated by FAST (v7.00.01, 20-Jan-2012) on 23-Jan-2012 at 10:11:04.
The aerodynamic calculations were made by AeroDyn (v13.00.00, 20-Jan-2012).

 FAST certification Test #14: WindPACT 1.5 MW Baseline with many DOFs and system linearization.


Some Useful Information:

   Type of steady state solution found                None (linearized about initial conditions)
   Azimuth-average rotor speed, RotSpeed      (rad/s)    0.00000E+00
   Period of steady state solution              (sec) N/A (RotSpeed = 0.0)
   Iterations needed to find steady state solution       0
   Displacement 2-norm of steady state solution (rad)    0.00000E+00
   Velocity 2-norm of steady state solution   (rad/s)    0.00000E+00
   Number of equally-speced azimuth steps, NAzimStep     1
   Order of linearized model, MdlOrder                   1
   Number of active (enabled) DOFs                      14 (28 states)
   Number of control inputs, NInputs                     0
   Number of input wind disturbances, NDisturbs          0
   Number of output measurements                         0


Order of States in Linearized State Matrices:

   Row/column  1 = 1st tower fore-aft bending mode DOF (internal DOF index = DOF_TFA1)
   Row/column  2 = 1st tower side-to-side bending mode DOF (internal DOF index = DOF_TSS1)
   Row/column  3 = 2nd tower fore-aft bending mode DOF (internal DOF index = DOF_TFA2)
   Row/column  4 = 2nd tower side-to-side bending mode DOF (internal DOF index = DOF_TSS2)
   Row/column  5 = Drivetrain rotational-flexibility DOF (internal DOF index = DOF_DrTr)
   Row/column  6 = 1st flapwise bending-mode DOF of blade 1 (internal DOF index = DOF_BF(1,1))
   Row/column  7 = 1st flapwise bending-mode DOF of blade 2 (internal DOF index = DOF_BF(2,1))
   Row/column  8 = 1st flapwise bending-mode DOF of blade 3 (internal DOF index = DOF_BF(3,1))
   Row/column  9 = 1st edgewise bending-mode DOF of blade 1 (internal DOF index = DOF_BE(1,1))
   Row/column 10 = 1st edgewise bending-mode DOF of blade 2 (internal DOF index = DOF_BE(2,1))
   Row/column 11 = 1st edgewise bending-mode DOF of blade 3 (internal DOF index = DOF_BE(3,1))
   Row/column 12 = 2nd flapwise bending-mode DOF of blade 1 (internal DOF index = DOF_BF(1,2))
   Row/column 13 = 2nd flapwise bending-mode DOF of blade 2 (internal DOF index = DOF_BF(2,2))
   Row/column 14 = 2nd flapwise bending-mode DOF of blade 3 (internal DOF index = DOF_BF(3,2))
   Row/column 15 to 28 = First derivatives of row/column  1 to 14.


Order of Control Inputs in Linearized State Matrices:

   None selected


Order of Input Wind Disturbances in Linearized State Matrices:

   None selected


Order of Output Measurements in Linearized State Matrices:

   None selected


Linearized State Matrices:

--------- Azimuth = 360.00 deg (with respect to AzimB1Up =   0.00 deg) ---------
op State  	|	op        	|	A - State 	          	          	          	          	          	          	          	          	          	          	          	          	          	          	          	          	          	          	          	          	          	          	          	          	          	          	          
Derivativs	|	States    	|	Matrix    	          	          	          	          	          	          	          	          	          	          	          	          	          	          	          	          	          	          	          	          	          	          	          	          	          	          	          
 0.000E+00	|	 0.000E+00	|	 0.000E+00	 0.000E+00	 0.000E+00	 0.000E+00	 0.000E+00	 0.000E+00	 0.000E+00	 0.000E+00	 0.000E+00	 0.000E+00	 0.000E+00	 0.000E+00	 0.000E+00	 0.000E+00	 1.000E+00	 0.000E+00	 0.000E+00	 0.000E+00	 0.000E+00	 0.000E+00	 0.000E+00	 0.000E+00	 0.000E+00	 0.000E+00	 0.000E+00	 0.000E+00	 0.000E+00	 0.000E+00
 0.000E+00	|	 0.000E+00	|	 0.000E+00	 0.000E+00	 0.000E+00	 0.000E+00	 0.000E+00	 0.000E+00	 0.000E+00	 0.000E+00	 0.000E+00	 0.000E+00	 0.000E+00	 0.000E+00	 0.000E+00	 0.000E+00	 0.000E+00	 1.000E+00	 0.000E+00	 0.000E+00	 0.000E+00	 0.000E+00	 0.000E+00	 0.000E+00	 0.000E+00	 0.000E+00	 0.000E+00	 0.000E+00	 0.000E+00	 0.000E+00
 0.000E+00	|	 0.000E+00	|	 0.000E+00	 0.000E+00	 0.000E+00	 0.000E+00	 0.000E+00	 0.000E+00	 0.000E+00	 0.000E+00	 0.000E+00	 0.000E+00	 0.000E+00	 0.000E+00	 0.000E+00	 0.000E+00	 0.000E+00	 0.000E+00	 1.000E+00	 0.000E+00	 0.000E+00	 0.000E+00	 0.000E+00	 0.000E+00	 0.000E+00	 0.000E+00	 0.000E+00	 0.000E+00	 0.000E+00	 0.000E+00
 0.000E+00	|	 0.000E+00	|	 0.000E+00	 0.000E+00	 0.000E+00	 0.000E+00	 0.000E+00	 0.000E+00	 0.000E+00	 0.000E+00	 0.000E+00	 0.000E+00	 0.000E+00	 0.000E+00	 0.000E+00	 0.000E+00	 0.000E+00	 0.000E+00	 0.000E+00	 1.000E+00	 0.000E+00	 0.000E+00	 0.000E+00	 0.000E+00	 0.000E+00	 0.000E+00	 0.000E+00	 0.000E+00	 0.000E+00	 0.000E+00
 0.000E+00	|	 0.000E+00	|	 0.000E+00	 0.000E+00	 0.000E+00	 0.000E+00	 0.000E+00	 0.000E+00	 0.000E+00	 0.000E+00	 0.000E+00	 0.000E+00	 0.000E+00	 0.000E+00	 0.000E+00	 0.000E+00	 0.000E+00	 0.000E+00	 0.000E+00	 0.000E+00	 1.000E+00	 0.000E+00	 0.000E+00	 0.000E+00	 0.000E+00	 0.000E+00	 0.000E+00	 0.000E+00	 0.000E+00	 0.000E+00
 0.000E+00	|	 0.000E+00	|	 0.000E+00	 0.000E+00	 0.000E+00	 0.000E+00	 0.000E+00	 0.000E+00	 0.000E+00	 0.000E+00	 0.000E+00	 0.000E+00	 0.000E+00	 0.000E+00	 0.000E+00	 0.000E+00	 0.000E+00	 0.000E+00	 0.000E+00	 0.000E+00	 0.000E+00	 1.000E+00	 0.000E+00	 0.000E+00	 0.000E+00	 0.000E+00	 0.000E+00	 0.000E+00	 0.000E+00	 0.000E+00
 0.000E+00	|	 0.000E+00	|	 0.000E+00	 0.000E+00	 0.000E+00	 0.000E+00	 0.000E+00	 0.000E+00	 0.000E+00	 0.000E+00	 0.000E+00	 0.000E+00	 0.000E+00	 0.000E+00	 0.000E+00	 0.000E+00	 0.000E+00	 0.000E+00	 0.000E+00	 0.000E+00	 0.000E+00	 0.000E+00	 1.000E+00	 0.000E+00	 0.000E+00	 0.000E+00	 0.000E+00	 0.000E+00	 0.000E+00	 0.000E+00
 0.000E+00	|	 0.000E+00	|	 0.000E+00	 0.000E+00	 0.000E+00	 0.000E+00	 0.000E+00	 0.000E+00	 0.000E+00	 0.000E+00	 0.000E+00	 0.000E+00	 0.000E+00	 0.000E+00	 0.000E+00	 0.000E+00	 0.000E+00	 0.000E+00	 0.000E+00	 0.000E+00	 0.000E+00	 0.000E+00	 0.000E+00	 1.000E+00	 0.000E+00	 0.000E+00	 0.000E+00	 0.000E+00	 0.000E+00	 0.000E+00
 0.000E+00	|	 0.000E+00	|	 0.000E+00	 0.000E+00	 0.000E+00	 0.000E+00	 0.000E+00	 0.000E+00	 0.000E+00	 0.000E+00	 0.000E+00	 0.000E+00	 0.000E+00	 0.000E+00	 0.000E+00	 0.000E+00	 0.000E+00	 0.000E+00	 0.000E+00	 0.000E+00	 0.000E+00	 0.000E+00	 0.000E+00	 0.000E+00	 1.000E+00	 0.000E+00	 0.000E+00	 0.000E+00	 0.000E+00	 0.000E+00
 0.000E+00	|	 0.000E+00	|	 0.000E+00	 0.000E+00	 0.000E+00	 0.000E+00	 0.000E+00	 0.000E+00	 0.000E+00	 0.000E+00	 0.000E+00	 0.000E+00	 0.000E+00	 0.000E+00	 0.000E+00	 0.000E+00	 0.000E+00	 0.000E+00	 0.000E+00	 0.000E+00	 0.000E+00	 0.000E+00	 0.000E+00	 0.000E+00	 0.000E+00	 1.000E+00	 0.000E+00	 0.000E+00	 0.000E+00	 0.000E+00
 0.000E+00	|	 0.000E+00	|	 0.000E+00	 0.000E+00	 0.000E+00	 0.000E+00	 0.000E+00	 0.000E+00	 0.000E+00	 0.000E+00	 0.000E+00	 0.000E+00	 0.000E+00	 0.000E+00	 0.000E+00	 0.000E+00	 0.000E+00	 0.000E+00	 0.000E+00	 0.000E+00	 0.000E+00	 0.000E+00	 0.000E+00	 0.000E+00	 0.000E+00	 0.000E+00	 1.000E+00	 0.000E+00	 0.000E+00	 0.000E+00
 0.000E+00	|	 0.000E+00	|	 0.000E+00	 0.000E+00	 0.000E+00	 0.000E+00	 0.000E+00	 0.000E+00	 0.000E+00	 0.000E+00	 0.000E+00	 0.000E+00	 0.000E+00	 0.000E+00	 0.000E+00	 0.000E+00	 0.000E+00	 0.000E+00	 0.000E+00	 0.000E+00	 0.000E+00	 0.000E+00	 0.000E+00	 0.000E+00	 0.000E+00	 0.000E+00	 0.000E+00	 1.000E+00	 0.000E+00	 0.000E+00
 0.000E+00	|	 0.000E+00	|	 0.000E+00	 0.000E+00	 0.000E+00	 0.000E+00	 0.000E+00	 0.000E+00	 0.000E+00	 0.000E+00	 0.000E+00	 0.000E+00	 0.000E+00	 0.000E+00	 0.000E+00	 0.000E+00	 0.000E+00	 0.000E+00	 0.000E+00	 0.000E+00	 0.000E+00	 0.000E+00	 0.000E+00	 0.000E+00	 0.000E+00	 0.000E+00	 0.000E+00	 0.000E+00	 1.000E+00	 0.000E+00
 0.000E+00	|	 0.000E+00	|	 0.000E+00	 0.000E+00	 0.000E+00	 0.000E+00	 0.000E+00	 0.000E+00	 0.000E+00	 0.000E+00	 0.000E+00	 0.000E+00	 0.000E+00	 0.000E+00	 0.000E+00	 0.000E+00	 0.000E+00	 0.000E+00	 0.000E+00	 0.000E+00	 0.000E+00	 0.000E+00	 0.000E+00	 0.000E+00	 0.000E+00	 0.000E+00	 0.000E+00	 0.000E+00	 0.000E+00	 1.000E+00
 0.000E+00	|	 0.000E+00	|	-7.303E+00	-1.221E-03	 1.330E+02	-5.598E-02	-2.321E+02	 4.958E-01	 3.198E-01	 3.373E-01	 3.029E-01	 3.064E-01	 7.518E-02	-2.079E+00	-1.595E+00	-1.654E+00	 0.000E+00	 0.000E+00	 0.000E+00	 0.000E+00	 0.000E+00	 0.000E+00	 0.000E+00	 0.000E+00	 0.000E+00	 0.000E+00	 0.000E+00	 0.000E+00	 0.000E+00	 0.000E+00
 0.000E+00	|	 0.000E+00	|	-1.534E-03	-7.011E+00	-1.446E+00	 1.433E+02	 6.686E+02	 7.614E-02	-3.046E-02	-4.485E-02	-9.890E-01	 5.000E-01	 4.895E-01	-2.603E-01	 1.087E-01	 1.478E-01	 0.000E+00	 0.000E+00	 0.000E+00	 0.000E+00	 0.000E+00	 0.000E+00	 0.000E+00	 0.000E+00	 0.000E+00	 0.000E+00	 0.000E+00	 0.000E+00	 0.000E+00	 0.000E+00
 0.000E+00	|	 0.000E+00	|	 1.643E-01	-2.622E-03	-3.351E+02	-1.434E-01	-2.048E+01	 2.734E-01	-8.943E-02	-7.626E-02	 1.805E-01	 2.911E-02	-1.456E-01	-8.108E-01	 1.791E-01	 1.340E-01	 0.000E+00	 0.000E+00	 0.000E+00	 0.000E+00	 0.000E+00	 0.000E+00	 0.000E+00	 0.000E+00	 0.000E+00	 0.000E+00	 0.000E+00	 0.000E+00	 0.000E+00	 0.000E+00
 0.000E+00	|	 0.000E+00	|	-1.322E-04	 1.800E-01	-1.431E-01	-3.466E+02	 1.713E+03	 8.192E-03	 1.446E-02	-2.257E-02	-1.066E-01	 6.580E-02	 4.083E-02	-2.801E-02	-3.644E-02	 6.409E-02	 0.000E+00	 0.000E+00	 0.000E+00	 0.000E+00	 0.000E+00	 0.000E+00	 0.000E+00	 0.000E+00	 0.000E+00	 0.000E+00	 0.000E+00	 0.000E+00	 0.000E+00	 0.000E+00
 0.000E+00	|	 0.000E+00	|	-2.768E-02	 1.043E-01	-1.353E+00	 1.128E+02	-1.273E+04	 3.446E-01	 3.422E-01	 3.551E-01	-4.576E+00	-4.669E+00	-4.663E+00	-8.161E-01	-8.142E-01	-8.494E-01	 0.000E+00	 0.000E+00	 0.000E+00	 0.000E+00	 0.000E+00	 0.000E+00	 0.000E+00	 0.000E+00	 0.000E+00	 0.000E+00	 0.000E+00	 0.000E+00	 0.000E+00	 0.000E+00
 0.000E+00	|	 0.000E+00	|	 2.451E+01	 3.590E+00	 7.135E+03	 2.133E+02	 1.372E+05	-7.189E+01	-3.111E+00	-3.442E+00	 5.068E+01	 5.042E+01	 5.533E+01	 4.806E+01	 1.134E+01	 1.250E+01	 0.000E+00	 0.000E+00	 0.000E+00	 0.000E+00	 0.000E+00	 0.000E+00	 0.000E+00	 0.000E+00	 0.000E+00	 0.000E+00	 0.000E+00	 0.000E+00	 0.000E+00	 0.000E+00
 0.000E+00	|	 0.000E+00	|	 1.414E+01	-1.330E+00	-2.351E+03	 3.784E+02	 1.363E+05	-3.081E+00	-6.484E+01	-4.989E+00	 5.313E+01	 5.501E+01	 5.157E+01	 7.888E+00	 2.539E+01	 1.305E+01	 0.000E+00	 0.000E+00	 0.000E+00	 0.000E+00	 0.000E+00	 0.000E+00	 0.000E+00	 0.000E+00	 0.000E+00	 0.000E+00	 0.000E+00	 0.000E+00	 0.000E+00	 0.000E+00
 0.000E+00	|	 0.000E+00	|	 1.503E+01	-2.222E+00	-2.009E+03	-5.897E+02	 1.414E+05	-3.410E+00	-4.991E+00	-6.480E+01	 5.238E+01	 5.244E+01	 5.471E+01	 8.936E+00	 1.329E+01	 2.543E+01	 0.000E+00	 0.000E+00	 0.000E+00	 0.000E+00	 0.000E+00	 0.000E+00	 0.000E+00	 0.000E+00	 0.000E+00	 0.000E+00	 0.000E+00	 0.000E+00	 0.000E+00	 0.000E+00
 0.000E+00	|	 0.000E+00	|	 5.088E+00	-1.566E+01	 1.575E+03	-9.321E+02	-6.062E+05	 1.634E+01	 1.767E+01	 1.742E+01	-3.800E+02	-2.337E+02	-2.328E+02	 1.856E+01	-4.093E+01	-4.020E+01	 0.000E+00	 0.000E+00	 0.000E+00	 0.000E+00	 0.000E+00	 0.000E+00	 0.000E+00	 0.000E+00	 0.000E+00	 0.000E+00	 0.000E+00	 0.000E+00	 0.000E+00	 0.000E+00
 0.000E+00	|	 0.000E+00	|	 4.845E+00	 7.942E+00	 2.547E+02	 5.752E+02	-6.186E+05	 1.676E+01	 1.779E+01	 1.744E+01	-2.337E+02	-3.771E+02	-2.353E+02	-3.882E+01	 1.436E+01	-4.076E+01	 0.000E+00	 0.000E+00	 0.000E+00	 0.000E+00	 0.000E+00	 0.000E+00	 0.000E+00	 0.000E+00	 0.000E+00	 0.000E+00	 0.000E+00	 0.000E+00	 0.000E+00	 0.000E+00
 0.000E+00	|	 0.000E+00	|	 8.883E-01	 7.728E+00	-1.271E+03	 3.573E+02	-6.177E+05	 1.841E+01	 1.716E+01	 1.770E+01	-2.328E+02	-2.353E+02	-3.773E+02	-4.410E+01	-4.078E+01	 1.381E+01	 0.000E+00	 0.000E+00	 0.000E+00	 0.000E+00	 0.000E+00	 0.000E+00	 0.000E+00	 0.000E+00	 0.000E+00	 0.000E+00	 0.000E+00	 0.000E+00	 0.000E+00	 0.000E+00
 0.000E+00	|	 0.000E+00	|	-2.360E+01	-2.850E+00	-4.885E+03	-1.693E+02	-7.436E+04	 1.540E+01	 1.839E+00	 2.082E+00	 1.342E+01	-2.669E+01	-3.033E+01	-5.755E+02	-7.873E+00	-8.728E+00	 0.000E+00	 0.000E+00	 0.000E+00	 0.000E+00	 0.000E+00	 0.000E+00	 0.000E+00	 0.000E+00	 0.000E+00	 0.000E+00	 0.000E+00	 0.000E+00	 0.000E+00	 0.000E+00
 0.000E+00	|	 0.000E+00	|	-1.705E+01	 1.126E+00	 1.070E+03	-2.188E+02	-7.420E+04	 2.625E+00	 1.015E+01	 3.062E+00	-2.814E+01	 1.053E+01	-2.805E+01	-7.903E+00	-5.591E+02	-9.100E+00	 0.000E+00	 0.000E+00	 0.000E+00	 0.000E+00	 0.000E+00	 0.000E+00	 0.000E+00	 0.000E+00	 0.000E+00	 0.000E+00	 0.000E+00	 0.000E+00	 0.000E+00	 0.000E+00
 0.000E+00	|	 0.000E+00	|	-1.775E+01	 1.682E+00	 7.972E+02	 3.859E+02	-7.741E+04	 2.893E+00	 3.010E+00	 1.016E+01	-2.764E+01	-2.803E+01	 1.013E+01	-8.759E+00	-9.098E+00	-5.593E+02	 0.000E+00	 0.000E+00	 0.000E+00	 0.000E+00	 0.000E+00	 0.000E+00	 0.000E+00	 0.000E+00	 0.000E+00	 0.000E+00	 0.000E+00	 0.000E+00	 0.000E+00	 0.000E+00


