
This file was generated by AeroDyn (v13.00.00a-bjj, 31-Mar-2010) on 02-Nov-2010 at 14:01:42.

Inputs read in from the AeroDyn input file:
1.5 MW baseline aerodynamic parameters for FAST certification test #11.

SI	Units for input and output         
BEDDOES	Dynamic stall model                 [Beddoes]
NO_CM	Aerodynamic pitching moment model   [NO Pitching Moments calculated]
DYNIN	Inflow model                        [Dynamic Inflow]
SWIRL	Induction factor model              [Normal and Radial flow induction factors calculated]
5.00000E-03	Convergence tolerance for induction factor
[Not Used]	Tip-loss model                     
[Not Used]	Hub-loss model                     
"Wind\WP_Baseline\84m_12mps"	  Wind file name
84.288	Wind reference (hub) height, m
0	Tower shadow centerline velocity deficit
9999.9	Tower shadow half width, m
9999.9	Tower shadow reference point, m
1.225	Air density, kg/m^3
1.46390E-05	Kinematic air viscosity, m^2/sec
5.00000E-03	Time interval for aerodynamic calculations, sec
4	Number of airfoil files used. Files listed below:
"AeroData\WP_Baseline\cylinder.dat"
"AeroData\WP_Baseline\s818_2703.dat"
"AeroData\WP_Baseline\s825_2103.dat"
"AeroData\WP_Baseline\s826_1603.dat"
15	Number of blade elements per blade

     Element     RELM       Twist       DR        Chord      NFoil     Print?    Tip-loss   Hub-loss 
       (-)        (m)       (deg)       (m)        (m)        (-)     (Yes/No)   constant   constant 
   ---------- ---------- ---------- ---------- ---------- ---------- ---------- ---------- ----------
            1    2.85833   11.10000    2.21667    1.94900          1         No   16.86737    0.95000
            2    5.07500   11.10000    2.21667    2.26900          2         No    8.84483    2.85000
            3    7.29167   11.10000    2.21667    2.58900          2         No    5.70000    4.75001
            4    9.50833   10.41000    2.21667    2.74300          2         No    4.02147    6.65000
            5   11.72500    8.38000    2.21667    2.57800          2         No    2.97761    8.55001
            6   13.94167    6.35000    2.21667    2.41200          2         No    2.26569   10.45001
            7   16.15833    4.33000    2.21667    2.24700          2         No    1.74910   12.35001
            8   18.37500    2.85000    2.21667    2.08200          3         No    1.35714   14.25001
            9   20.59167    2.22000    2.21667    1.91600          3         No    1.04957   16.15001
           10   22.80833    1.58000    2.21667    1.75100          3         No    0.80179   18.05001
           11   25.02500    0.95000    2.21667    1.58500          3         No    0.59790   19.95001
           12   27.24167    0.53000    2.21667    1.42700          3         No    0.42719   21.85002
           13   29.45833    0.38000    2.21667    1.27800          3         No    0.28218   23.75002
           14   31.67500    0.23000    2.21667    1.12900          4         No    0.15746   25.65002
           15   33.89167    0.08000    2.21667    0.98000          4         No    0.04905   27.55002


 Rotor radius     =  35.000 m
 Hub radius       =   1.750 m
 Number of blades =   3

  BEDDOES DYNAMIC STALL PARAMETERS:

   CN SLOPE           0.0000     6.1084     6.1883     6.1657
   STALL CN (UPPER)   0.0000     1.9560     2.0641     2.0013
   STALL CN (LOWER)   0.0000    -0.8000    -0.8000    -0.8000
   ZERO LIFT AOA      0.0000    -5.3100    -6.1000    -6.6100
   MIN DRAG AOA       0.0000    -4.5000    -6.0000    -4.0000
   MIN DRAG COEFF     1.0000     0.0082     0.0074     0.0067


     VORTEX TRANSIT TIME FROM LE TO TE    11.00000    
     PRESSURE TIME CONSTANT               1.700000    
     VORTEX TIME CONSTANT                 6.000000    
     F-PARAMETER TIME CONSTANT            3.000000    
