------- HydroDyn v2.00.* Input File --------------------------------------------
NREL 5.0 MW offshore baseline floating platform HydroDyn input properties for the ITI Barge with 4m draft.
TRUE           Echo           - Echo the input file data (flag)
---------------------- ENVIRONMENTAL CONDITIONS --------------------------------
1025.0         WtrDens        - Water density (kg/m^3)
 150.0         WtrDpth        - Water depth (meters)
   0.0         MSL2SWL        - Offset between still-water level and mean sea level (meters) [positive upward; must be zero if HasWAMIT=TRUE]
---------------------- WAVES ---------------------------------------------------
   2           WaveMod        - Incident wave kinematics model {0: none=still water, 1: plane progressive (regular), 2: JONSWAP/Pierson-Moskowitz spectrum (irregular), 3: user-defind spectrum from routine UserWaveSpctrm (irregular), 4: GH Bladed wave data [invalid for StrctType=2]} (switch)
   0           WaveStMod      - Model for stretching incident wave kinematics to instantaneous free surface {0: none=no stretching, 1: vertical stretching, 2: extrapolation stretching, 3: Wheeler stretching} (switch) [unused when WaveMod=0 or when StrctType=2]
3630.0         WaveTMax       - Analysis time for incident wave calculations (sec) [unused when WaveMod=0] [determines WaveDOmega=2Pi/WaveTMax in the IFFT]
   0.25        WaveDT         - Time step for incident wave calculations (sec) [unused when WaveMod=0] [0.1<=WaveDT<=1.0 recommended] [determines WaveOmegaMax=Pi/WaveDT in the IFFT]
   5.0         WaveHs         - Significant wave height of incident waves (meters) [used only when WaveMod=1, 2, or 3]
  12.4         WaveTp         - Peak-spectral period of incident waves (sec) [used only when WaveMod=1 or 2]
DEFAULT        WavePkShp      - Peak-shape parameter of incident wave spectrum (-) or DEFAULT (unquoted string) [used only when WaveMod=2] [use 1.0 for Pierson-Moskowitz]
   0.0         WvLowCOff      - Low cut-off frequency or lower frequency limit of the wave spectrum beyond which the wave spectrum is zeroed (rad/s) [used only when WaveMod=2, 4, or 5]
 500.0         WvHiCOff       - High cut-off frequency or upper frequency limit of the wave spectrum beyond which the wave spectrum is zeroed (rad/s) [used only when WaveMod=2, 4, or 5]
   0.0         WaveDir        - Incident wave propagation heading direction (degrees) [unused when WaveMod=0 or 5]
123456789      WaveSeed(1)    - First  random seed of incident waves [-2147483648 to 2147483647] (-) [unused when WaveMod=0 or 5]
1011121314     WaveSeed(2)    - Second random seed of incident waves [-2147483648 to 2147483647] (-) [unused when WaveMod=0 or 5]
 TRUE          WaveNDAmp      - Flag for normally distributed amplitudes (flag)
""             GHWvFile       - Root name of GH Bladed files containing wave data (quoted string) [used only when WaveMod=5]
   1           NWaveElev      - Number of points where the incident wave elevations can be computed (-) [maximum of 9 output locations]
   0           WaveElevxi     - List of xi-coordinates for points where the incident wave elevations can be output (meters) [NWaveElev points, separated by commas or white space; usused if NWaveElev = 0]
   0           WaveElevyi     - List of yi-coordinates for points where the incident wave elevations can be output (meters) [NWaveElev points, separated by commas or white space; usused if NWaveElev = 0]
---------------------- CURRENT -------------------------------------------------
   0           CurrMod        - Current profile model {0: none=no current, 1: standard, 2: user-defined from routine UserCurrent} (switch)
   0.0         CurrSSV0       - Sub-surface current velocity at still water level (m/s) [used only when CurrMod=1]
DEFAULT        CurrSSDir      - Sub-surface current heading direction (degrees) or DEFAULT (unquoted string) [used only when CurrMod=1]
  20.0         CurrNSRef      - Near-surface current reference depth (meters) [used only when CurrMod=1]
   0.0         CurrNSV0       - Near-surface current velocity at still water level (m/s) [used only when CurrMod=1]
   0.0         CurrNSDir      - Near-surface current heading direction (degrees) [used only when CurrMod=1]
   0.0         CurrDIV        - Depth-independent current velocity (m/s) [used only when CurrMod=1]
   0.0         CurrDIDir      - Depth-independent current heading direction (degrees) [used only when CurrMod=1]
---------------------- FLOATING PLATFORM ---------------------------------------
TRUE           HasWAMIT       - Using WAMIT (flag)
"HydroData/Barge" WAMITFile   - Root name of WAMIT output files containing the linear, nondimensionalized, hydrostatic restoring matrix (.hst extension), frequency-dependent hydrodynamic added mass matrix and damping matrix (.1 extension), and frequency- and direction-dependent wave excitation force vector per unit wave amplitude (.3 extension) (quoted string) [MAKE SURE THE FREQUENCIES INHERENT IN THESE WAMIT FILES SPAN THE PHYSICALLY-SIGNIFICANT RANGE OF FREQUENCIES FOR THE GIVEN PLATFORM; THEY MUST CONTAIN THE ZERO- AND INFINITE-FREQUENCY LIMITS!]
   1.0         WAMITULEN      - Characteristic body length scale used to redimensionalize WAMIT output (meters)
  6000.0       PtfmVol0       - Displaced volume of water when the platform is in its undisplaced position (m^3) [USE THE SAME VALUE COMPUTED BY WAMIT AS OUTPUT IN THE .OUT FILE!]
   0.0         PtfmCOBxt      - The xt offset of the center of buoyancy (COB) from the platform reference point (meters) 
   0.0         PtfmCOByt      - The yt offset of the center of buoyancy (COB) from the platform reference point (meters) 
   1           RdtnMod        - Radiation memory-effect model {0: no memory-effect calculation, 1: convolution, 2: state-space} (switch) [STATE-SPACE REQUIRES *.ss INPUT FILE]
  60.0         RdtnTMax       - Analysis time for wave radiation kernel calculations (sec) [determines RdtnDOmega=Pi/RdtnTMax in the cosine transform]  [MAKE SURE THIS IS LONG ENOUGH FOR THE RADIATION IMPULSE RESPONSE FUNCTIONS TO DECAY TO NEAR-ZERO FOR THE GIVEN PLATFORM!]
   0.005       RdtnDT         - Time step for wave radiation kernel calculations (sec) [DT<=RdtnDT<=0.1 recommended] [determines RdtnOmegaMax=Pi/RdtnDT in the cosine transform]
---------------------- FLOATING PLATFORM FORCE FLAGS  --------------------------
True           PtfmSgF        - Platform horizontal surge translation force (flag) or DEFAULT
True           PtfmSwF        - Platform horizontal sway translation force (flag) or DEFAULT
True           PtfmHvF        - Platform vertical heave translation force (flag) or DEFAULT
True           PtfmRF         - Platform roll tilt rotation force (flag) or DEFAULT
True           PtfmPF         - Platform pitch tilt rotation force (flag) or DEFAULT
True           PtfmYF         - Platform yaw rotation force (flag) or DEFAULT
---------------------- FLOATING PLATFORM ADDITIONAL STIFFNESS AND DAMPING  -----
0.0   0.0   0.0   0.0   0.0   0.0   AddF0    - Additional preload (N, N-m)                                                 
0.0   0.0   0.0   0.0   0.0   0.0   AddCLin  - Additional linear stiffness (N/m, N/rad, N-m/m, N-m/rad)                    
0.0   0.0   0.0   0.0   0.0   0.0                                                                                          
0.0   0.0   0.0   0.0   0.0   0.0                                                                                          
0.0   0.0   0.0   0.0   0.0   0.0                                                                                          
0.0   0.0   0.0   0.0   0.0   0.0                                                                                          
0.0   0.0   0.0   0.0   0.0   0.0                                                                                          
0.0   0.0   0.0   0.0   0.0   0.0   AddBLin  - Additional linear damping(N/(m/s), N/(rad/s), N-m/(m/s), N-m/(rad/s))       
0.0   0.0   0.0   0.0   0.0   0.0                                                                                          
0.0   0.0   0.0   0.0   0.0   0.0                                                                                          
0.0   0.0   0.0   0.0   0.0   0.0                                                                                          
0.0   0.0   0.0   0.0   0.0   0.0                                                                                          
0.0   0.0   0.0   0.0   0.0   0.0                                                                                          
0.0   0.0   0.0   0.0   0.0   0.0   AddBQuad - Additional quadratic drag(N/(m/s)^2, N/(rad/s)^2, N-m(m/s)^2, N-m/(rad/s)^2)
0.0   0.0   0.0   0.0   0.0   0.0
0.0   0.0   0.0   0.0   0.0   0.0
0.0   0.0   0.0   0.0   0.0   0.0
0.0   0.0   0.0   0.0   0.0   0.0
0.0   0.0   0.0   0.0   0.0   0.0
---------------------- HEAVE COEFFICIENTS --------------------------------------
1              NHvCoef        - Number of heave coefficients (-)
HvCoefID   HvCd        HvCa
 (-)       (-)         (-)
  1         0.0        0.0
---------------------- MEMBER JOINTS -------------------------------------------
2              NJoints        - Number of joints (-)   [must be exactly 0 or at least 2]
JointID   Jointx      Jointy      Jointz      JointHvID  JointOvrlp   [JointOvrlp= 0: do nothing at joint, 1: eliminate overlaps by calculating super member]
(-)        (m)         (m)          (m)          (-)      (switch)
 1         0.0        0.0           -4.0          1          0
 2         0.0        0.0            0.0          1          0
--------------------- MEMBER CROSS-SECTION PROPERTIES --------------------------
1             NPropSets      - Number of member property sets (-)
PropSetID    PropD            PropThck
(-)          (m)              (m)
 1           45.1352          0.0001
---------------------- SIMPLE HYDRODYNAMIC COEFFICIENTS (model 1) --------------
SimplCd      SimplCdMG   SimplCa      SimplCaMG
(-)            (-)        (-)          (-)
1.0            1.0        0.0          0.0
---------------------- DEPTH-BASED HYDRODYNAMIC COEFFICIENTS (model 2) ---------
0             NCoefDpth      - Number of depth-dependent coefficients (-)
Dpth      DpthCd   DpthCdMG   DpthCa   DpthCaMG
(m)       (-)      (-)        (-)      (-)
---------------------- MEMBER-BASED HYDRODYNAMIC COEFFICIENTS (model 3) --------
 0         NCoefMembers       - Number of member-based coefficients (-)
MemberID   MemberCd1   MemberCd2   MemberCdMG1   MemberCdMG2   MemberCa1   MemberCa2   MemberCaMG1   MemberCaMG2
(-)        (-)         (-)         (-)           (-)           (-)         (-)         (-)           (-)
---------------------- MEMBERS -------------------------------------------------
1              NMembers       - Number of members (-)
MemberID   MJointID1   MJointID2   MPropSetID1  MPropSetID2   MDivSize  MCoefMod  PropWAMIT   [MCoefMod=1: use simple coeff table, 2: use depth-based coeff table, 3: use member-based coeff table] [ PropWAMIT = TRUE if member is modeled in WAMIT]
(-)        (-)         (-)         (-)          (-)           (m)       (switch)    (flag)
 1          1           2           1             1           0.5         1          TRUE
---------------------- FILLED MEMBERS ------------------------------------------
0              NFillGroups     - Number of filled member groups (-) [If FillDens = DEFAULT, then FillDens = WtrDens; FillFSLoc is related to MSL2SWL]
FillNumM FillMList             FillFSLoc     FillDens
(-)      (-)                   (m)           (kg/m^3)
---------------------- MARINE GROWTH -------------------------------------------
0              NMGDepths      - Number of marine-growth depths specified (-)
MGDpth     MGThck       MGDens
(m)        (m)         (kg/m^3)
---------------------- MEMBER OUTPUT LIST --------------------------------------
   0           NMOutputs      - Number of member outputs (-) [must be < 10]
MemberID   NOutLoc    NodeLocs [NOutLoc < 10; node locations are normalized distance from the start of the member, and must be >=0 and <= 1] [unused if NMOutputs=0]
  (-)        (-)        (-)
---------------------- JOINT OUTPUT LIST ---------------------------------------
   0          NJOutputs      - Number of joint outputs [Must be < 10 ]
---------------------- OUTPUT --------------------------------------------------
True           HDSum          - Output a summary file [flag]
False          OutAll         - Output all user-specified member and joint loads (only at each member end, not interior locations) [flag]
2              OutSwtch       - Output requested channels to: [1=Hydrodyn.out, 2=GlueCode.out,  3=both files]
"ES11.4e2"     OutFmt         - Output format for numerical results (quoted string) [not checked for validity!]
"A11"          OutSFmt        - Output format for header strings (quoted string) [not checked for validity!]
---------------------- FLOATING PLATFORM OUTPUTS -------------------------------
"Wave1Elev"                                                        - Wave elevation at the platform reference point (  0,  0)
END of Floating platform outputs
---------------------- MESH-BASED OUTPUTS --------------------------------------
END of mesh-based outputs and HydroDyn input file (the word "END" must appear in the first 3 columns of this last line).

"Wave1Elev"                                                        - Wave elevation at the platform reference point (  0,  0)
"Wave2Elev"                                                        - Wave elevation at the platform reference point (  0, 10)
"Wave3Elev"                                                        - Wave elevation at the platform reference point (  0,-10)
"Wave4Elev"                                                        - Wave elevation at the platform reference point ( 10,  0)
"Wave5Elev"                                                        - Wave elevation at the platform reference point ( 10, 10)
"Wave6Elev"                                                        - Wave elevation at the platform reference point ( 10,-10)
"Wave7Elev"                                                        - Wave elevation at the platform reference point (-10,  0)
"Wave8Elev"                                                        - Wave elevation at the platform reference point (-10, 10)
"Wave9Elev"                                                        - Wave elevation at the platform reference point (-10,-10)
"WavesFxi , WavesFyi , WavesFzi , WavesMxi , WavesMyi , WavesMzi"  - Longitudinal, lateral, and vertical wave forces and moments at the platform reference point
"HdrStcFxi, HdrStcFyi, HdrStcFzi, HdrStcMxi, HdrStcMyi, HdrStcMzi" - Longitudinal, lateral, and vertical hydrostatic forces and moments at the platform reference point
"RdtnFxi  , RdtnFyi  , RdtnFzi  , RdtnMxi  , RdtnMyi  , RdtnMzi"   - Longitudinal, lateral, and vertical radiation memory effect forces and moments at the platform reference point
