------- HydroDyn v2.00.05      Input File --------------------------------------------
Compatible with HydroDyn v2.00.00b-gjh
False            Echo           - Echo the input file data (flag)
---------------------- ENVIRONMENTAL CONDITIONS --------------------------------
          1025   WtrDens        - Water density (kg/m^3)
            50   WtrDpth        - Water depth (meters)
             0   MSL2SWL        - Offset between still-water level and mean sea level (meters) [positive upward; must be zero if HasWAMIT=TRUE]
---------------------- WAVES ---------------------------------------------------
             2   WaveMod        - Incident wave kinematics model {0: none=still water, 1: plane progressive (regular), 1P#: plane progressive with user-specified phase, 2: JONSWAP/Pierson-Moskowitz spectrum (irregular), 3: White noise spectrum (irregular), 4: user-defined spectrum from routine UserWaveSpctrm (irregular), 5: GH Bladed wave data [option 5 is invalid for HasWAMIT = TRUE]} (switch)
             0   WaveStMod      - Model for stretching incident wave kinematics to instantaneous free surface {0: none=no stretching, 1: vertical stretching, 2: extrapolation stretching, 3: Wheeler stretching} (switch) [unused when WaveMod=0 or when HasWAMIT = TRUE]
          3630   WaveTMax       - Analysis time for incident wave calculations (sec) [unused when WaveMod=0] [determines WaveDOmega=2Pi/WaveTMax in the IFFT]
          0.25   WaveDT         - Time step for incident wave calculations (sec) [unused when WaveMod=0] [0.1<=WaveDT<=1.0 recommended] [determines WaveOmegaMax=Pi/WaveDT in the IFFT]
             6   WaveHs         - Significant wave height of incident waves (meters) [used only when WaveMod=1, 2, or 3]
            10   WaveTp         - Peak-spectral period of incident waves (sec) [used only when WaveMod=1 or 2]
"DEFAULT"        WavePkShp      - Peak-shape parameter of incident wave spectrum (-) or DEFAULT (unquoted string) [used only when WaveMod=2] [use 1.0 for Pierson-Moskowitz]
             0   WvLowCOff      - Low cut-off frequency or lower frequency limit of the wave spectrum beyond which the wave spectrum is zeroed (rad/s) [used only when WaveMod=2, 3, or 4]
           500   WvHiCOff       - High cut-off frequency or upper frequency limit of the wave spectrum beyond which the wave spectrum is zeroed (rad/s) [used only when WaveMod=2, 3, or 4]
             0   WaveDir        - Incident wave propagation heading direction (degrees) [unused when WaveMod=0 or 5]
     123456789   WaveSeed(1)    - First  random seed of incident waves [-2147483648 to 2147483647] (-) [unused when WaveMod=0 or 5]
    1011121314   WaveSeed(2)    - Second random seed of incident waves [-2147483648 to 2147483647] (-) [unused when WaveMod=0 or 5]
TRUE             WaveNDAmp      - Flag for normally distributed amplitudes (flag)
""               GHWvFile       - Root name of GH Bladed files containing wave data (quoted string) [used only when WaveMod=5]
             9   NWaveElev      - Number of points where the incident wave elevations can be computed (-) [maximum of 9 output locations]
             0,             0,             0,            10,            10,            10,           -10,           -10,           -10    WaveElevxi     - List of xi-coordinates for points where the incident wave elevations can be output (meters) [NWaveElev points, separated by commas or white space; usused if NWaveElev = 0]
             0,            10,           -10,             0,            10,           -10,             0,            10,           -10    WaveElevyi     - List of yi-coordinates for points where the incident wave elevations can be output (meters) [NWaveElev points, separated by commas or white space; usused if NWaveElev = 0]
---------------------- CURRENT -------------------------------------------------
             0   CurrMod        - Current profile model {0: none=no current, 1: standard, 2: user-defined from routine UserCurrent} (switch)
             0   CurrSSV0       - Sub-surface current velocity at still water level (m/s) [used only when CurrMod=1]
"DEFAULT"        CurrSSDir      - Sub-surface current heading direction (degrees) or DEFAULT (unquoted string) [used only when CurrMod=1]
            20   CurrNSRef      - Near-surface current reference depth (meters) [used only when CurrMod=1]
             0   CurrNSV0       - Near-surface current velocity at still water level (m/s) [used only when CurrMod=1]
             0   CurrNSDir      - Near-surface current heading direction (degrees) [used only when CurrMod=1]
             0   CurrDIV        - Depth-independent current velocity (m/s) [used only when CurrMod=1]
             0   CurrDIDir      - Depth-independent current heading direction (degrees) [used only when CurrMod=1]
---------------------- FLOATING PLATFORM ---------------------------------------
FALSE            HasWAMIT       - Using WAMIT (flag)
""               WAMITFile      - Root name of WAMIT output files containing the linear, nondimensionalized, hydrostatic restoring matrix (.hst extension), frequency-dependent hydrodynamic added mass matrix and damping matrix (.1 extension), and frequency- and direction-dependent wave excitation force vector per unit wave amplitude (.3 extension) (quoted string) [MAKE SURE THE FREQUENCIES INHERENT IN THESE WAMIT FILES SPAN THE PHYSICALLY-SIGNIFICANT RANGE OF FREQUENCIES FOR THE GIVEN PLATFORM; THEY MUST CONTAIN THE ZERO- AND INFINITE-FREQUENCY LIMITS!]
             1   WAMITULEN      - Characteristic body length scale used to redimensionalize WAMIT output (meters)
       8029.21   PtfmVol0       - Displaced volume of water when the platform is in its undisplaced position (m^3) [USE THE SAME VALUE COMPUTED BY WAMIT AS OUTPUT IN THE .OUT FILE!]
             0   PtfmCOBxt      - The xt offset of the center of buoyancy (COB) from the platform reference point (meters)
             0   PtfmCOByt      - The yt offset of the center of buoyancy (COB) from the platform reference point (meters)
             1   RdtnMod        - Radiation memory-effect model {0: no memory-effect calculation, 1: convolution, 2: state-space} (switch) [STATE-SPACE REQUIRES *.ss INPUT FILE]
            60   RdtnTMax       - Analysis time for wave radiation kernel calculations (sec) [determines RdtnDOmega=Pi/RdtnTMax in the cosine transform]  [MAKE SURE THIS IS LONG ENOUGH FOR THE RADIATION IMPULSE RESPONSE FUNCTIONS TO DECAY TO NEAR-ZERO FOR THE GIVEN PLATFORM!]
         0.025   RdtnDT         - Time step for wave radiation kernel calculations (sec) [DT<=RdtnDT<=0.1 recommended] [determines RdtnOmegaMax=Pi/RdtnDT in the cosine transform]
---------------------- FLOATING PLATFORM FORCE FLAGS  --------------------------
True             PtfmSgF        - Platform horizontal surge translation force (flag) or DEFAULT
True             PtfmSwF        - Platform horizontal sway translation force (flag) or DEFAULT
True             PtfmHvF        - Platform vertical heave translation force (flag) or DEFAULT
True             PtfmRF         - Platform roll tilt rotation force (flag) or DEFAULT
True             PtfmPF         - Platform pitch tilt rotation force (flag) or DEFAULT
True             PtfmYF         - Platform yaw rotation force (flag) or DEFAULT
---------------------- PLATFORM ADDITIONAL STIFFNESS AND DAMPING  --------------
             0             0             0             0             0             0   AddF0    - Additional preload (N, N-m)
             0             0             0             0             0             0   AddCLin  - Additional linear stiffness (N/m, N/rad, N-m/m, N-m/rad)
             0             0             0             0             0             0
             0             0             0             0             0             0
             0             0             0             0             0             0
             0             0             0             0             0             0
             0             0             0             0             0             0
             0             0             0             0             0             0   AddBLin  - Additional linear damping(N/(m/s), N/(rad/s), N-m/(m/s), N-m/(rad/s))
             0             0             0             0             0             0
             0             0             0             0             0             0
             0             0             0             0             0             0
             0             0             0             0             0             0
             0             0             0             0             0             0
             0             0             0             0             0             0   AddBQuad - Additional quadratic drag(N/(m/s)^2, N/(rad/s)^2, N-m(m/s)^2, N-m/(rad/s)^2)
             0             0             0             0             0             0
             0             0             0             0             0             0
             0             0             0             0             0             0
             0             0             0             0             0             0
             0             0             0             0             0             0
---------------------- AXIAL COEFFICIENTS --------------------------------------
             1   NAxCoef        - Number of axial coefficients (-)
AxCoefID  AxCd     AxCa     AxCp
   (-)    (-)      (-)      (-)
    1     0.00     0.00     1.00
---------------------- MEMBER JOINTS -------------------------------------------
            64   NJoints        - Number of joints (-)   [must be exactly 0 or at least 2]
JointID   Jointxi     Jointyi     Jointzi  JointAxID   JointOvrlp   [JointOvrlp= 0: do nothing at joint, 1: eliminate overlaps by calculating super member]
   (-)     (m)         (m)         (m)        (-)       (switch)
    1     6.00000     6.00000   -45.50000      1            0
    2     6.00000     6.00000   -45.00000      1            0
    3     5.96700     5.96700   -44.00100      1            0
    4     5.93900     5.93900   -43.12700      1            0
    5     5.33300     5.33300   -24.61400      1            0
    6    -6.00000     6.00000   -45.50000      1            0
    7    -6.00000     6.00000   -45.00000      1            0
    8    -5.96700     5.96700   -44.00100      1            0
    9    -5.93900     5.93900   -43.12700      1            0
   10    -5.33300     5.33300   -24.61400      1            0
   11    -6.00000    -6.00000   -45.50000      1            0
   12    -6.00000    -6.00000   -45.00000      1            0
   13    -5.96700    -5.96700   -44.00100      1            0
   14    -5.93900    -5.93900   -43.12700      1            0
   15    -5.33300    -5.33300   -24.61400      1            0
   16     6.00000    -6.00000   -45.50000      1            0
   17     6.00000    -6.00000   -45.00000      1            0
   18     5.96700    -5.96700   -44.00100      1            0
   19     5.93900    -5.93900   -43.12700      1            0
   20     5.33300    -5.33300   -24.61400      1            0
   21     4.82000     4.82000    -8.92200      1            0
   22     4.38500     4.38500     4.37800      1            0
   23     4.01600     4.01600    15.65100      1            0
   24     4.00000     4.00000    16.15000      1            0
   25    -4.82000     4.82000    -8.92200      1            0
   26    -4.38500     4.38500     4.37800      1            0
   27    -4.01600     4.01600    15.65100      1            0
   28    -4.00000     4.00000    16.15000      1            0
   29    -4.82000    -4.82000    -8.92200      1            0
   30    -4.38500    -4.38500     4.37800      1            0
   31    -4.01600    -4.01600    15.65100      1            0
   32    -4.00000    -4.00000    16.15000      1            0
   33     4.82000    -4.82000    -8.92200      1            0
   34     4.38500    -4.38500     4.37800      1            0
   35     4.01600    -4.01600    15.65100      1            0
   36     4.00000    -4.00000    16.15000      1            0
   37     5.62000     0.00000   -33.37300      1            0
   38    -5.62000     0.00000   -33.37300      1            0
   39     0.00000     5.62000   -33.37300      1            0
   40     0.00000    -5.62000   -33.37300      1            0
   41     5.06400     0.00000   -16.37100      1            0
   42    -5.06400     0.00000   -16.37100      1            0
   43     0.00000     5.06400   -16.37100      1            0
   44     0.00000    -5.06400   -16.37100      1            0
   45     4.59200     0.00000    -1.95800      1            0
   46    -4.59200     0.00000    -1.95800      1            0
   47     0.00000     4.59200    -1.95800      1            0
   48     0.00000    -4.59200    -1.95800      1            0
   49     4.19300     0.00000    10.26200      1            0
   50    -4.19300     0.00000    10.26200      1            0
   51     0.00000     4.19300    10.26200      1            0
   52     0.00000    -4.19300    10.26200      1            0
   53     4.00000     4.00000    20.15000      1            0
   54    -4.00000     4.00000    20.15000      1            0
   55     4.00000    -4.00000    20.15000      1            0
   56    -4.00000    -4.00000    20.15000      1            0
   57     6.00000    -6.00000   -49.50000      1            0
   58     6.00000     6.00000   -49.50000      1            0
   59    -6.00000    -6.00000   -49.50000      1            0
   60    -6.00000     6.00000   -49.50000      1            0
   61     6.00000    -6.00000   -50.00100      1            0
   62     6.00000     6.00000   -50.00100      1            0
   63    -6.00000    -6.00000   -50.00100      1            0
   64    -6.00000     6.00000   -50.00100      1            0
---------------------- MEMBER CROSS-SECTION PROPERTIES -------------------------
             6   NPropSets      - Number of member property sets (-)
PropSetID    PropD         PropThck
   (-)        (m)            (m)
    1        0.80000        0.02000
    2        1.20000        0.05000
    3        1.20000        0.03500
    4        1.20000        0.04000
    5        2.08200        0.49100
    6        2.08200        0.06000
---------------------- SIMPLE HYDRODYNAMIC COEFFICIENTS (model 1) --------------
SimplCd      SimplCdMG    SimplCa     SimplCaMG      SimplCp     SimplCpMG   SimplAxCa     SimplAxCaMG      SimplAxCp     SimplAxCpMG
(-)           (-)           (-)         (-)            (-)         (-)          (-)           (-)              (-)            (-)
      1.00       1.05       0.60       1.00       1.00       1.00       1.00       1.00       1.00       1.00
---------------------- DEPTH-BASED HYDRODYNAMIC COEFFICIENTS (model 2) ---------
             2   NCoefDpth       - Number of depth-dependent coefficients (-)
Dpth      DpthCd   DpthCdMG   DpthCa   DpthCaMG       DpthCp   DpthCpMG   DpthAxCa   DpthAxCaMG       DpthAxCp   DpthAxCpMG
(m)       (-)      (-)        (-)      (-)            (-)      (-)          (-)        (-)              (-)         (-)
  -20.00     0.20     0.30     0.50     0.70     1.00     1.00     1.00     1.00     1.00     1.00
  -50.00     0.30     0.35     0.55     0.75     1.00     1.00     1.00     1.00     1.00     1.00
---------------------- MEMBER-BASED HYDRODYNAMIC COEFFICIENTS (model 3) --------
             1   NCoefMembers       - Number of member-based coefficients (-)
MemberID   MemberCd1   MemberCd2   MemberCdMG1   MemberCdMG2   MemberCa1   MemberCa2   MemberCaMG1   MemberCaMG2    MemberCp1  MemberCp2   MemberCpMG1   MemberCpMG2  MemberAxCa1   MemberAxCa2   MemberAxCaMG1   MemberAxCaMG2    MemberAxCp1  MemberAxCp2   MemberAxCpMG1   MemberAxCpMG2
(-)        (-)         (-)         (-)           (-)           (-)         (-)         (-)           (-)             (-)         (-)           (-)           (-)          (-)           (-)           (-)             (-)              (-)          (-)           (-)             (-)
    3        0.20       0.30        0.25         0.40        0.60       0.70        0.65         0.75        1.00       1.00        1.00         1.00        1.00       1.00        1.00         1.00        1.00       1.00        1.00         1.00
---------------------- MEMBERS -------------------------------------------------
           112   NMembers       - Number of members (-)
MemberID   MJointID1   MJointID2   MPropSetID1  MPropSetID2   MDivSize  MCoefMod  PropWAMIT   [MCoefMod=1: use simple coeff table, 2: use depth-based coeff table, 3: use member-based coeff table] [ PropWAMIT = TRUE if member is modeled in WAMIT]
(-)        (-)         (-)         (-)          (-)           (m)       (switch)    (flag)
    1         1          2           2            2         1.0000     1        FALSE
    2         2          3           2            2         1.0000     1        FALSE
    3         3          4           2            2         1.0000     1        FALSE
    4         4          5           2            2         1.0000     1        FALSE
    5         6          7           2            2         1.0000     1        FALSE
    6         7          8           2            2         1.0000     1        FALSE
    7         8          9           2            2         1.0000     1        FALSE
    8         9         10           2            2         1.0000     1        FALSE
    9        11         12           2            2         1.0000     1        FALSE
   10        12         13           2            2         1.0000     1        FALSE
   11        13         14           2            2         1.0000     1        FALSE
   12        14         15           2            2         1.0000     1        FALSE
   13        16         17           2            2         1.0000     1        FALSE
   14        17         18           2            2         1.0000     1        FALSE
   15        18         19           2            2         1.0000     1        FALSE
   16        19         20           2            2         1.0000     1        FALSE
   17         5         21           3            3         1.0000     1        FALSE
   18        21         22           3            3         1.0000     1        FALSE
   19        22         23           3            3         1.0000     1        FALSE
   20        23         24           3            3         1.0000     1        FALSE
   21        10         25           3            3         1.0000     1        FALSE
   22        25         26           3            3         1.0000     1        FALSE
   23        26         27           3            3         1.0000     1        FALSE
   24        27         28           3            3         1.0000     1        FALSE
   25        15         29           3            3         1.0000     1        FALSE
   26        29         30           3            3         1.0000     1        FALSE
   27        30         31           3            3         1.0000     1        FALSE
   28        31         32           3            3         1.0000     1        FALSE
   29        20         33           3            3         1.0000     1        FALSE
   30        33         34           3            3         1.0000     1        FALSE
   31        34         35           3            3         1.0000     1        FALSE
   32        35         36           3            3         1.0000     1        FALSE
   33         3          8           1            1         1.0000     1        FALSE
   34         8         13           1            1         1.0000     1        FALSE
   35        13         18           1            1         1.0000     1        FALSE
   36        18          3           1            1         1.0000     1        FALSE
   37         4         37           1            1         1.0000     1        FALSE
   38        37         20           1            1         1.0000     1        FALSE
   39        19         37           1            1         1.0000     1        FALSE
   40        37          5           1            1         1.0000     1        FALSE
   41         9         38           1            1         1.0000     1        FALSE
   42        38         15           1            1         1.0000     1        FALSE
   43        14         38           1            1         1.0000     1        FALSE
   44        38         10           1            1         1.0000     1        FALSE
   45         4         39           1            1         1.0000     1        FALSE
   46        39         10           1            1         1.0000     1        FALSE
   47         9         39           1            1         1.0000     1        FALSE
   48        39          5           1            1         1.0000     1        FALSE
   49        19         40           1            1         1.0000     1        FALSE
   50        40         15           1            1         1.0000     1        FALSE
   51        14         40           1            1         1.0000     1        FALSE
   52        40         20           1            1         1.0000     1        FALSE
   53         5         41           1            1         1.0000     1        FALSE
   54        41         33           1            1         1.0000     1        FALSE
   55        20         41           1            1         1.0000     1        FALSE
   56        41         21           1            1         1.0000     1        FALSE
   57        10         42           1            1         1.0000     1        FALSE
   58        42         29           1            1         1.0000     1        FALSE
   59        15         42           1            1         1.0000     1        FALSE
   60        42         25           1            1         1.0000     1        FALSE
   61         5         43           1            1         1.0000     1        FALSE
   62        43         25           1            1         1.0000     1        FALSE
   63        10         43           1            1         1.0000     1        FALSE
   64        43         21           1            1         1.0000     1        FALSE
   65        20         44           1            1         1.0000     1        FALSE
   66        44         29           1            1         1.0000     1        FALSE
   67        15         44           1            1         1.0000     1        FALSE
   68        44         33           1            1         1.0000     1        FALSE
   69        21         45           1            1         1.0000     1        FALSE
   70        45         34           1            1         1.0000     1        FALSE
   71        33         45           1            1         1.0000     1        FALSE
   72        45         22           1            1         1.0000     1        FALSE
   73        25         46           1            1         1.0000     1        FALSE
   74        46         30           1            1         1.0000     1        FALSE
   75        29         46           1            1         1.0000     1        FALSE
   76        46         26           1            1         1.0000     1        FALSE
   77        21         47           1            1         1.0000     1        FALSE
   78        47         26           1            1         1.0000     1        FALSE
   79        25         47           1            1         1.0000     1        FALSE
   80        47         22           1            1         1.0000     1        FALSE
   81        33         48           1            1         1.0000     1        FALSE
   82        48         30           1            1         1.0000     1        FALSE
   83        29         48           1            1         1.0000     1        FALSE
   84        48         34           1            1         1.0000     1        FALSE
   85        22         49           1            1         1.0000     1        FALSE
   86        49         35           1            1         1.0000     1        FALSE
   87        34         49           1            1         1.0000     1        FALSE
   88        49         23           1            1         1.0000     1        FALSE
   89        26         50           1            1         1.0000     1        FALSE
   90        50         31           1            1         1.0000     1        FALSE
   91        30         50           1            1         1.0000     1        FALSE
   92        50         27           1            1         1.0000     1        FALSE
   93        22         51           1            1         1.0000     1        FALSE
   94        51         27           1            1         1.0000     1        FALSE
   95        26         51           1            1         1.0000     1        FALSE
   96        51         23           1            1         1.0000     1        FALSE
   97        34         52           1            1         1.0000     1        FALSE
   98        52         31           1            1         1.0000     1        FALSE
   99        30         52           1            1         1.0000     1        FALSE
  100        52         35           1            1         1.0000     1        FALSE
  101        24         53           4            4         1.0000     1        FALSE
  102        28         54           4            4         1.0000     1        FALSE
  103        32         56           4            4         1.0000     1        FALSE
  104        36         55           4            4         1.0000     1        FALSE
  105         1         58           5            5         1.0000     1        FALSE
  106        16         57           5            5         1.0000     1        FALSE
  107         6         60           5            5         1.0000     1        FALSE
  108        11         59           5            5         1.0000     1        FALSE
  109        58         62           6            6         1.0000     1        FALSE
  110        57         61           6            6         1.0000     1        FALSE
  111        60         64           6            6         1.0000     1        FALSE
  112        59         63           6            6         1.0000     1        FALSE
---------------------- FILLED MEMBERS ------------------------------------------
             1   NFillGroups     - Number of filled member groups (-) [If FillDens = DEFAULT, then FillDens = WtrDens; FillFSLoc is related to MSL2SWL]
FillNumM FillMList             FillFSLoc     FillDens
(-)      (-)                   (m)           (kg/m^3)
   32   1   2   3   4   5   6   7   8   9  10  11  12  13  14  15  16  17  18  21  22  25  26  29  30 105 106 107 108 109 110 111 112     0.00           1025
---------------------- MARINE GROWTH -------------------------------------------
             0   NMGDepths      - Number of marine-growth depths specified (-)
MGDpth     MGThck       MGDens
(m)        (m)         (kg/m^3)
---------------------- MEMBER OUTPUT LIST --------------------------------------
             1   NMOutputs      - Number of member outputs (-) [must be < 10]
MemberID   NOutLoc    NodeLocs [NOutLoc < 10; node locations are normalized distance from the start of the member, and must be >=0 and <= 1] [unused if NMOutputs=0]
  (-)        (-)        (-)
    1          6        0.000  0.200  0.400  0.600  0.800  1.000
---------------------- JOINT OUTPUT LIST ---------------------------------------
             2   NJOutputs      - Number of joint outputs [Must be < 10]
   1   2         JOutLst        - List of JointIDs which are to be output (-)[unused if NJOutputs=0]
---------------------- OUTPUT --------------------------------------------------
True             HDSum          - Output a summary file [flag]
False            OutAll         - Output all user-specified member and joint loads (only at each member end, not interior locations) [flag]
             2   OutSwtch       - Output requested channels to: [1=Hydrodyn.out, 2=GlueCode.out, 3=both files]
"ES11.4e2"       OutFmt         - Output format for numerical results (quoted string) [not checked for validity!]
"A11"            OutSFmt        - Output format for header strings (quoted string) [not checked for validity!]
---------------------- OUTPUT CHANNELS -----------------------------------------
"M1N1FVxi"
"Wave1Elev"
"M1N1FVxi"
"M1N1FVyi"
"M1N1FVzi"
"M1N1FAxi"
"M1N1FAyi"
"M1N1FAzi"
"M1N1DynP"
"M1N1FDPxi"
"M1N1FDPyi"
"M1N1FDPzi"
"M1N1FDxi"
"M1N1FDyi"
"M1N1FDzi"
"M1N1FIxi"
"M1N1FIyi"
"M1N1FIzi"
"M1N1FBxi"
"M1N1FByi"
"M1N1FBzi"
"M1N1MBxi"
"M1N1MByi"
"M1N1MBzi"
"M1N1FBFxi"
"M1N1FBFyi"
"M1N1FBFzi"
"M1N1MBFxi"
"M1N1MBFyi"
"M1N1MBFzi"
"J1FVxi"
"J1FVyi"
"J1FVzi"
"J1FAxi"
"J1FAyi"
"J1FAyi"
"J1FAzi"
"J1DynP"
"J1FDPxi"
"J1FDPyi"
"J1FDPzi"
"J1FDxi"
"J1FDyi"
"J1FDzi"
"J1FBxi"
"J1FByi"
"J1FBzi"
"J1MBxi"
"J1MByi"
"J1MBzi"
"J1FBFxi"
"J1FBFyi"
"J1FBFzi"
"J1MBFxi"
"J1MBFxi"
"J1MBFyi"
"J1MBFyi"
"J1MBFzi"
END of output channels and end of file. (the word "END" must appear in the first 3 columns of this line)


"M1N1FVxi, M1N2FVxi, M1N3FVxi, M1N4FVxi, M1N5FVxi, M1N6FVxi"
"M1N1FVyi, M1N2FVyi, M1N3FVyi, M1N4FVyi, M1N5FVyi, M1N6FVyi"
"M1N1FVzi, M1N2FVzi, M1N3FVzi, M1N4FVzi, M1N5FVzi, M1N6FVzi"
"M1N1FAxi, M1N2FAxi, M1N3FAxi, M1N4FAxi, M1N5FAxi, M1N6FAxi"
"M1N1FAyi, M1N2FAyi, M1N3FAyi, M1N4FAyi, M1N5FAyi, M1N6FAyi"
"M1N1FAzi, M1N2FAzi, M1N3FAzi, M1N4FAzi, M1N5FAzi, M1N6FAzi"