!ADAMS/View model name: FAST certification Test #14: WindPACT 1.5 MW Baseline with many DOFs and system linearization.
!This ADAMS dataset file was generated by FAST (v7.01.00a-bjj, 16-Feb-2012) on 17-Feb-2012 at 14:14:14.
!Turbine input data from file "test14.fst".
!                             adams_view_name='CalcOuts_V'
VARIABLE/1, FUNCTION = USER(1)
!=================================== PARTS =====================================
!----------------------------------- Ground ------------------------------------
!                             adams_view_name='Ground_P'
PART/1
, GROUND
!                             adams_view_name='AeroDynGround_M'
MARKER/1
, PART = 1
, QP =  0.000000E+00,  0.000000E+00,  0.000000E+00
, REULER = 0D, 0D, 0D
!                             adams_view_name='InertialFrameCS_M'
MARKER/10
, PART = 1
!                             adams_view_name='InitPtfmOrientation_M'
MARKER/11
, PART = 1
, QP =  0.000000E+00,  0.000000E+00,  0.000000E+00
, ZP =  0.000000E+00,  0.000000E+00,  1.000000E+00
, XP =  1.000000E+00,  0.000000E+00,  0.000000E+00
!                             adams_view_name='TailFinFloatingAero_M'
MARKER/500
, PART = 1
, FLOATING
!                             adams_view_name='PlatformLoadingFloating_M'
MARKER/800
, PART = 1
, FLOATING
!------------------ Ground: Floating Aero and Hydro for Tower ------------------
!                             adams_view_name='TowerSec01FloatingAeroHydro_M'
MARKER/801
, PART = 1
, FLOATING
!                             adams_view_name='TowerSec02FloatingAeroHydro_M'
MARKER/802
, PART = 1
, FLOATING
!                             adams_view_name='TowerSec03FloatingAeroHydro_M'
MARKER/803
, PART = 1
, FLOATING
!                             adams_view_name='TowerSec04FloatingAeroHydro_M'
MARKER/804
, PART = 1
, FLOATING
!                             adams_view_name='TowerSec05FloatingAeroHydro_M'
MARKER/805
, PART = 1
, FLOATING
!                             adams_view_name='TowerSec06FloatingAeroHydro_M'
MARKER/806
, PART = 1
, FLOATING
!                             adams_view_name='TowerSec07FloatingAeroHydro_M'
MARKER/807
, PART = 1
, FLOATING
!                             adams_view_name='TowerSec08FloatingAeroHydro_M'
MARKER/808
, PART = 1
, FLOATING
!                             adams_view_name='TowerSec09FloatingAeroHydro_M'
MARKER/809
, PART = 1
, FLOATING
!                             adams_view_name='TowerSec10FloatingAeroHydro_M'
MARKER/810
, PART = 1
, FLOATING
!--------------------- Ground: Floating Aero for Blade 1 -----------------------
!                             adams_view_name='Bld1Sec01FloatingAero_M'
MARKER/101
, PART = 1
, FLOATING
!                             adams_view_name='Bld1Sec02FloatingAero_M'
MARKER/102
, PART = 1
, FLOATING
!                             adams_view_name='Bld1Sec03FloatingAero_M'
MARKER/103
, PART = 1
, FLOATING
!                             adams_view_name='Bld1Sec04FloatingAero_M'
MARKER/104
, PART = 1
, FLOATING
!                             adams_view_name='Bld1Sec05FloatingAero_M'
MARKER/105
, PART = 1
, FLOATING
!                             adams_view_name='Bld1Sec06FloatingAero_M'
MARKER/106
, PART = 1
, FLOATING
!                             adams_view_name='Bld1Sec07FloatingAero_M'
MARKER/107
, PART = 1
, FLOATING
!                             adams_view_name='Bld1Sec08FloatingAero_M'
MARKER/108
, PART = 1
, FLOATING
!                             adams_view_name='Bld1Sec09FloatingAero_M'
MARKER/109
, PART = 1
, FLOATING
!                             adams_view_name='Bld1Sec10FloatingAero_M'
MARKER/110
, PART = 1
, FLOATING
!                             adams_view_name='Bld1Sec11FloatingAero_M'
MARKER/111
, PART = 1
, FLOATING
!                             adams_view_name='Bld1Sec12FloatingAero_M'
MARKER/112
, PART = 1
, FLOATING
!                             adams_view_name='Bld1Sec13FloatingAero_M'
MARKER/113
, PART = 1
, FLOATING
!                             adams_view_name='Bld1Sec14FloatingAero_M'
MARKER/114
, PART = 1
, FLOATING
!                             adams_view_name='Bld1Sec15FloatingAero_M'
MARKER/115
, PART = 1
, FLOATING
!                             adams_view_name='TipBrake1FloatingAero_M'
MARKER/501
, PART = 1
, FLOATING
!--------------------- Ground: Floating Aero for Blade 2 -----------------------
!                             adams_view_name='Bld2Sec01FloatingAero_M'
MARKER/201
, PART = 1
, FLOATING
!                             adams_view_name='Bld2Sec02FloatingAero_M'
MARKER/202
, PART = 1
, FLOATING
!                             adams_view_name='Bld2Sec03FloatingAero_M'
MARKER/203
, PART = 1
, FLOATING
!                             adams_view_name='Bld2Sec04FloatingAero_M'
MARKER/204
, PART = 1
, FLOATING
!                             adams_view_name='Bld2Sec05FloatingAero_M'
MARKER/205
, PART = 1
, FLOATING
!                             adams_view_name='Bld2Sec06FloatingAero_M'
MARKER/206
, PART = 1
, FLOATING
!                             adams_view_name='Bld2Sec07FloatingAero_M'
MARKER/207
, PART = 1
, FLOATING
!                             adams_view_name='Bld2Sec08FloatingAero_M'
MARKER/208
, PART = 1
, FLOATING
!                             adams_view_name='Bld2Sec09FloatingAero_M'
MARKER/209
, PART = 1
, FLOATING
!                             adams_view_name='Bld2Sec10FloatingAero_M'
MARKER/210
, PART = 1
, FLOATING
!                             adams_view_name='Bld2Sec11FloatingAero_M'
MARKER/211
, PART = 1
, FLOATING
!                             adams_view_name='Bld2Sec12FloatingAero_M'
MARKER/212
, PART = 1
, FLOATING
!                             adams_view_name='Bld2Sec13FloatingAero_M'
MARKER/213
, PART = 1
, FLOATING
!                             adams_view_name='Bld2Sec14FloatingAero_M'
MARKER/214
, PART = 1
, FLOATING
!                             adams_view_name='Bld2Sec15FloatingAero_M'
MARKER/215
, PART = 1
, FLOATING
!                             adams_view_name='TipBrake2FloatingAero_M'
MARKER/502
, PART = 1
, FLOATING
!--------------------- Ground: Floating Aero for Blade 3 -----------------------
!                             adams_view_name='Bld3Sec01FloatingAero_M'
MARKER/301
, PART = 1
, FLOATING
!                             adams_view_name='Bld3Sec02FloatingAero_M'
MARKER/302
, PART = 1
, FLOATING
!                             adams_view_name='Bld3Sec03FloatingAero_M'
MARKER/303
, PART = 1
, FLOATING
!                             adams_view_name='Bld3Sec04FloatingAero_M'
MARKER/304
, PART = 1
, FLOATING
!                             adams_view_name='Bld3Sec05FloatingAero_M'
MARKER/305
, PART = 1
, FLOATING
!                             adams_view_name='Bld3Sec06FloatingAero_M'
MARKER/306
, PART = 1
, FLOATING
!                             adams_view_name='Bld3Sec07FloatingAero_M'
MARKER/307
, PART = 1
, FLOATING
!                             adams_view_name='Bld3Sec08FloatingAero_M'
MARKER/308
, PART = 1
, FLOATING
!                             adams_view_name='Bld3Sec09FloatingAero_M'
MARKER/309
, PART = 1
, FLOATING
!                             adams_view_name='Bld3Sec10FloatingAero_M'
MARKER/310
, PART = 1
, FLOATING
!                             adams_view_name='Bld3Sec11FloatingAero_M'
MARKER/311
, PART = 1
, FLOATING
!                             adams_view_name='Bld3Sec12FloatingAero_M'
MARKER/312
, PART = 1
, FLOATING
!                             adams_view_name='Bld3Sec13FloatingAero_M'
MARKER/313
, PART = 1
, FLOATING
!                             adams_view_name='Bld3Sec14FloatingAero_M'
MARKER/314
, PART = 1
, FLOATING
!                             adams_view_name='Bld3Sec15FloatingAero_M'
MARKER/315
, PART = 1
, FLOATING
!                             adams_view_name='TipBrake3FloatingAero_M'
MARKER/503
, PART = 1
, FLOATING
!------------------------------- Ground GRAPHICS -------------------------------
!                             adams_view_name='Ground_G'
GRAPHICS/1
, CIRCLE
, CM = 1
, RADIUS =  3.500000E+01
, SEG = 12
!------------------------------ Support Platform -------------------------------
!                             adams_view_name='Platform_P'
PART/1000
, QG =  0.000000E+00,  0.000000E+00,  0.000000E+00
, ZG =  0.000000E+00,  0.000000E+00,  1.000000E+00
, XG =  1.000000E+00,  0.000000E+00,  0.000000E+00
, CM = 1005
, MASS =  9.999000E-04
, IP =  9.999000E-04,  9.999000E-04,  9.999000E-04
!                             adams_view_name='PlatformRef_M'
MARKER/1000
, PART = 1000
!                             adams_view_name='PlatformCM_M'
MARKER/1005
, PART = 1000
, QP =  0.000000E+00,  0.000000E+00,  0.000000E+00
, REULER = 0D, 0D, 0D
!                             adams_view_name='UndeflTwrTop_M'
MARKER/1030
, PART = 1000
, QP =  0.000000E+00,  0.000000E+00,  8.239000E+01
, REULER = 0D, 0D, 0D
!------------------------------------ Tower ------------------------------------
!------------------------------ Tower: Tower Base ------------------------------
!                             adams_view_name='TowerBaseCS_M'
MARKER/1100
, PART = 1000
, QP =  0.000000E+00,  0.000000E+00,  0.000000E+00
, REULER = 0D, 0D, 0D
!                             adams_view_name='TwrBaseToTwrSec01_M'
MARKER/1400
, PART = 1000
, QP =  0.000000E+00,  0.000000E+00,  0.000000E+00
, REULER = 90D, 90D, 90D
!                             adams_view_name='TowerBase_G'
GRAPHICS/1400
, CYLINDER
, CM = 1100
, LENGTH =  0.000000E+00
, SIDES = 12
, RADIUS =  2.810000E+00
, SEG = 12
!--------------------------- Tower: Tower Section 01 ---------------------------
!                             adams_view_name='UndeflTowerSec01_M'
MARKER/1901
, PART = 1000
, QP =  0.000000E+00,  0.000000E+00,  4.119500E+00
, REULER = 0D, 0D, 0D
!                             adams_view_name='TowerSec01_P'
PART/1101
, QG =  0.000000E+00,  0.000000E+00,  4.119500E+00
, ZG =  1.000000E+00,  0.000000E+00,  4.119500E+00
, XG =  0.000000E+00,  0.000000E+00,  5.119500E+00
, CM = 1501
, MASS =  1.999174E+04
, IP =  1.428236E+05,  1.845002E+05,  1.845002E+05
!                             adams_view_name='TowerSec01Elastic_M'
MARKER/1101
, PART = 1101
!                             adams_view_name='TowerSec01AeroHydro_M'
MARKER/1801
, PART = 1101
, QP = 0, 0, 0
, REULER = 90D, 90D, 90D
!                             adams_view_name='TowerSec01Graphics_M'
MARKER/1201
, PART = 1101
, QP = -4.119500E+00,  0.000000E+00,  0.000000E+00
, REULER = 90D, 90D, 90D
!                             adams_view_name='TowerSec01_G'
GRAPHICS/1201
, CYLINDER
, CM = 1201
, LENGTH =  8.239000E+00
, SIDES = 12
, RADIUS =  2.740000E+00
, SEG = 12
!                             adams_view_name='TwrSec01ToTwrSecBelow_M'
MARKER/1301
, PART = 1101
, QP = -4.119500E+00,  0.000000E+00,  0.000000E+00
, REULER = 0D, 0D, 0D
!                             adams_view_name='TwrSec01ToTwrSecAbove_M'
MARKER/1401
, PART = 1101
, QP =  4.119500E+00,  0.000000E+00,  0.000000E+00
, REULER = 0D, 0D, 0D
!                             adams_view_name='TowerSec01CM_M'
MARKER/1501
, PART = 1101
, QP =  0.000000E+00,  0.000000E+00,  0.000000E+00
, REULER = 0D, 0D, 0D
!--------------------------- Tower: Tower Section 02 ---------------------------
!                             adams_view_name='UndeflTowerSec02_M'
MARKER/1902
, PART = 1000
, QP =  0.000000E+00,  0.000000E+00,  1.235850E+01
, REULER = 0D, 0D, 0D
!                             adams_view_name='TowerSec02_P'
PART/1102
, QG =  0.000000E+00,  0.000000E+00,  1.235850E+01
, ZG =  1.000000E+00,  0.000000E+00,  1.235850E+01
, XG =  0.000000E+00,  0.000000E+00,  1.335850E+01
, CM = 1502
, MASS =  1.800544E+04
, IP =  1.158674E+05,  1.597861E+05,  1.597861E+05
!                             adams_view_name='TowerSec02Elastic_M'
MARKER/1102
, PART = 1102
!                             adams_view_name='TowerSec02AeroHydro_M'
MARKER/1802
, PART = 1102
, QP = 0, 0, 0
, REULER = 90D, 90D, 90D
!                             adams_view_name='TowerSec02Graphics_M'
MARKER/1202
, PART = 1102
, QP = -4.119500E+00,  0.000000E+00,  0.000000E+00
, REULER = 90D, 90D, 90D
!                             adams_view_name='TowerSec02_G'
GRAPHICS/1202
, CYLINDER
, CM = 1202
, LENGTH =  8.239000E+00
, SIDES = 12
, RADIUS =  2.600000E+00
, SEG = 12
!                             adams_view_name='TwrSec02ToTwrSecBelow_M'
MARKER/1302
, PART = 1102
, QP = -4.119500E+00,  0.000000E+00,  0.000000E+00
, REULER = 0D, 0D, 0D
!                             adams_view_name='TwrSec02ToTwrSecAbove_M'
MARKER/1402
, PART = 1102
, QP =  4.119500E+00,  0.000000E+00,  0.000000E+00
, REULER = 0D, 0D, 0D
!                             adams_view_name='TowerSec02CM_M'
MARKER/1502
, PART = 1102
, QP =  0.000000E+00,  0.000000E+00,  0.000000E+00
, REULER = 0D, 0D, 0D
!--------------------------- Tower: Tower Section 03 ---------------------------
!                             adams_view_name='UndeflTowerSec03_M'
MARKER/1903
, PART = 1000
, QP =  0.000000E+00,  0.000000E+00,  2.059750E+01
, REULER = 0D, 0D, 0D
!                             adams_view_name='TowerSec03_P'
PART/1103
, QG =  0.000000E+00,  0.000000E+00,  2.059750E+01
, ZG =  1.000000E+00,  0.000000E+00,  2.059750E+01
, XG =  0.000000E+00,  0.000000E+00,  2.159750E+01
, CM = 1503
, MASS =  1.612171E+04
, IP =  9.287491E+04,  1.376341E+05,  1.376341E+05
!                             adams_view_name='TowerSec03Elastic_M'
MARKER/1103
, PART = 1103
!                             adams_view_name='TowerSec03AeroHydro_M'
MARKER/1803
, PART = 1103
, QP = 0, 0, 0
, REULER = 90D, 90D, 90D
!                             adams_view_name='TowerSec03Graphics_M'
MARKER/1203
, PART = 1103
, QP = -4.119500E+00,  0.000000E+00,  0.000000E+00
, REULER = 90D, 90D, 90D
!                             adams_view_name='TowerSec03_G'
GRAPHICS/1203
, CYLINDER
, CM = 1203
, LENGTH =  8.239000E+00
, SIDES = 12
, RADIUS =  2.460000E+00
, SEG = 12
!                             adams_view_name='TwrSec03ToTwrSecBelow_M'
MARKER/1303
, PART = 1103
, QP = -4.119500E+00,  0.000000E+00,  0.000000E+00
, REULER = 0D, 0D, 0D
!                             adams_view_name='TwrSec03ToTwrSecAbove_M'
MARKER/1403
, PART = 1103
, QP =  4.119500E+00,  0.000000E+00,  0.000000E+00
, REULER = 0D, 0D, 0D
!                             adams_view_name='TowerSec03CM_M'
MARKER/1503
, PART = 1103
, QP =  0.000000E+00,  0.000000E+00,  0.000000E+00
, REULER = 0D, 0D, 0D
!--------------------------- Tower: Tower Section 04 ---------------------------
!                             adams_view_name='UndeflTowerSec04_M'
MARKER/1904
, PART = 1000
, QP =  0.000000E+00,  0.000000E+00,  2.883650E+01
, REULER = 0D, 0D, 0D
!                             adams_view_name='TowerSec04_P'
PART/1104
, QG =  0.000000E+00,  0.000000E+00,  2.883650E+01
, ZG =  1.000000E+00,  0.000000E+00,  2.883650E+01
, XG =  0.000000E+00,  0.000000E+00,  2.983650E+01
, CM = 1504
, MASS =  1.434055E+04
, IP =  7.344364E+04,  1.178429E+05,  1.178429E+05
!                             adams_view_name='TowerSec04Elastic_M'
MARKER/1104
, PART = 1104
!                             adams_view_name='TowerSec04AeroHydro_M'
MARKER/1804
, PART = 1104
, QP = 0, 0, 0
, REULER = 90D, 90D, 90D
!                             adams_view_name='TowerSec04Graphics_M'
MARKER/1204
, PART = 1104
, QP = -4.119500E+00,  0.000000E+00,  0.000000E+00
, REULER = 90D, 90D, 90D
!                             adams_view_name='TowerSec04_G'
GRAPHICS/1204
, CYLINDER
, CM = 1204
, LENGTH =  8.239000E+00
, SIDES = 12
, RADIUS =  2.320000E+00
, SEG = 12
!                             adams_view_name='TwrSec04ToTwrSecBelow_M'
MARKER/1304
, PART = 1104
, QP = -4.119500E+00,  0.000000E+00,  0.000000E+00
, REULER = 0D, 0D, 0D
!                             adams_view_name='TwrSec04ToTwrSecAbove_M'
MARKER/1404
, PART = 1104
, QP =  4.119500E+00,  0.000000E+00,  0.000000E+00
, REULER = 0D, 0D, 0D
!                             adams_view_name='TowerSec04CM_M'
MARKER/1504
, PART = 1104
, QP =  0.000000E+00,  0.000000E+00,  0.000000E+00
, REULER = 0D, 0D, 0D
!--------------------------- Tower: Tower Section 05 ---------------------------
!                             adams_view_name='UndeflTowerSec05_M'
MARKER/1905
, PART = 1000
, QP =  0.000000E+00,  0.000000E+00,  3.707550E+01
, REULER = 0D, 0D, 0D
!                             adams_view_name='TowerSec05_P'
PART/1105
, QG =  0.000000E+00,  0.000000E+00,  3.707550E+01
, ZG =  1.000000E+00,  0.000000E+00,  3.707550E+01
, XG =  0.000000E+00,  0.000000E+00,  3.807550E+01
, CM = 1505
, MASS =  1.266197E+04
, IP =  5.719217E+04,  1.002218E+05,  1.002218E+05
!                             adams_view_name='TowerSec05Elastic_M'
MARKER/1105
, PART = 1105
!                             adams_view_name='TowerSec05AeroHydro_M'
MARKER/1805
, PART = 1105
, QP = 0, 0, 0
, REULER = 90D, 90D, 90D
!                             adams_view_name='TowerSec05Graphics_M'
MARKER/1205
, PART = 1105
, QP = -4.119500E+00,  0.000000E+00,  0.000000E+00
, REULER = 90D, 90D, 90D
!                             adams_view_name='TowerSec05_G'
GRAPHICS/1205
, CYLINDER
, CM = 1205
, LENGTH =  8.239000E+00
, SIDES = 12
, RADIUS =  2.180000E+00
, SEG = 12
!                             adams_view_name='TwrSec05ToTwrSecBelow_M'
MARKER/1305
, PART = 1105
, QP = -4.119500E+00,  0.000000E+00,  0.000000E+00
, REULER = 0D, 0D, 0D
!                             adams_view_name='TwrSec05ToTwrSecAbove_M'
MARKER/1405
, PART = 1105
, QP =  4.119500E+00,  0.000000E+00,  0.000000E+00
, REULER = 0D, 0D, 0D
!                             adams_view_name='TowerSec05CM_M'
MARKER/1505
, PART = 1105
, QP =  0.000000E+00,  0.000000E+00,  0.000000E+00
, REULER = 0D, 0D, 0D
!--------------------------- Tower: Tower Section 06 ---------------------------
!                             adams_view_name='UndeflTowerSec06_M'
MARKER/1906
, PART = 1000
, QP =  0.000000E+00,  0.000000E+00,  4.531450E+01
, REULER = 0D, 0D, 0D
!                             adams_view_name='TowerSec06_P'
PART/1106
, QG =  0.000000E+00,  0.000000E+00,  4.531450E+01
, ZG =  1.000000E+00,  0.000000E+00,  4.531450E+01
, XG =  0.000000E+00,  0.000000E+00,  4.631450E+01
, CM = 1506
, MASS =  1.109251E+04
, IP =  4.391189E+04,  8.470360E+04,  8.470360E+04
!                             adams_view_name='TowerSec06Elastic_M'
MARKER/1106
, PART = 1106
!                             adams_view_name='TowerSec06AeroHydro_M'
MARKER/1806
, PART = 1106
, QP = 0, 0, 0
, REULER = 90D, 90D, 90D
!                             adams_view_name='TowerSec06Graphics_M'
MARKER/1206
, PART = 1106
, QP = -4.119500E+00,  0.000000E+00,  0.000000E+00
, REULER = 90D, 90D, 90D
!                             adams_view_name='TowerSec06_G'
GRAPHICS/1206
, CYLINDER
, CM = 1206
, LENGTH =  8.239000E+00
, SIDES = 12
, RADIUS =  2.040000E+00
, SEG = 12
!                             adams_view_name='TwrSec06ToTwrSecBelow_M'
MARKER/1306
, PART = 1106
, QP = -4.119500E+00,  0.000000E+00,  0.000000E+00
, REULER = 0D, 0D, 0D
!                             adams_view_name='TwrSec06ToTwrSecAbove_M'
MARKER/1406
, PART = 1106
, QP =  4.119500E+00,  0.000000E+00,  0.000000E+00
, REULER = 0D, 0D, 0D
!                             adams_view_name='TowerSec06CM_M'
MARKER/1506
, PART = 1106
, QP =  0.000000E+00,  0.000000E+00,  0.000000E+00
, REULER = 0D, 0D, 0D
!--------------------------- Tower: Tower Section 07 ---------------------------
!                             adams_view_name='UndeflTowerSec07_M'
MARKER/1907
, PART = 1000
, QP =  0.000000E+00,  0.000000E+00,  5.355350E+01
, REULER = 0D, 0D, 0D
!                             adams_view_name='TowerSec07_P'
PART/1107
, QG =  0.000000E+00,  0.000000E+00,  5.355350E+01
, ZG =  1.000000E+00,  0.000000E+00,  5.355350E+01
, XG =  0.000000E+00,  0.000000E+00,  5.455350E+01
, CM = 1507
, MASS =  9.631888E+03
, IP =  3.319468E+04,  7.108262E+04,  7.108262E+04
!                             adams_view_name='TowerSec07Elastic_M'
MARKER/1107
, PART = 1107
!                             adams_view_name='TowerSec07AeroHydro_M'
MARKER/1807
, PART = 1107
, QP = 0, 0, 0
, REULER = 90D, 90D, 90D
!                             adams_view_name='TowerSec07Graphics_M'
MARKER/1207
, PART = 1107
, QP = -4.119500E+00,  0.000000E+00,  0.000000E+00
, REULER = 90D, 90D, 90D
!                             adams_view_name='TowerSec07_G'
GRAPHICS/1207
, CYLINDER
, CM = 1207
, LENGTH =  8.239000E+00
, SIDES = 12
, RADIUS =  1.900000E+00
, SEG = 12
!                             adams_view_name='TwrSec07ToTwrSecBelow_M'
MARKER/1307
, PART = 1107
, QP = -4.119500E+00,  0.000000E+00,  0.000000E+00
, REULER = 0D, 0D, 0D
!                             adams_view_name='TwrSec07ToTwrSecAbove_M'
MARKER/1407
, PART = 1107
, QP =  4.119500E+00,  0.000000E+00,  0.000000E+00
, REULER = 0D, 0D, 0D
!                             adams_view_name='TowerSec07CM_M'
MARKER/1507
, PART = 1107
, QP =  0.000000E+00,  0.000000E+00,  0.000000E+00
, REULER = 0D, 0D, 0D
!--------------------------- Tower: Tower Section 08 ---------------------------
!                             adams_view_name='UndeflTowerSec08_M'
MARKER/1908
, PART = 1000
, QP =  0.000000E+00,  0.000000E+00,  6.179250E+01
, REULER = 0D, 0D, 0D
!                             adams_view_name='TowerSec08_P'
PART/1108
, QG =  0.000000E+00,  0.000000E+00,  6.179250E+01
, ZG =  1.000000E+00,  0.000000E+00,  6.179250E+01
, XG =  0.000000E+00,  0.000000E+00,  6.279250E+01
, CM = 1508
, MASS =  8.273829E+03
, IP =  2.455944E+04,  5.908278E+04,  5.908278E+04
!                             adams_view_name='TowerSec08Elastic_M'
MARKER/1108
, PART = 1108
!                             adams_view_name='TowerSec08AeroHydro_M'
MARKER/1808
, PART = 1108
, QP = 0, 0, 0
, REULER = 90D, 90D, 90D
!                             adams_view_name='TowerSec08Graphics_M'
MARKER/1208
, PART = 1108
, QP = -4.119500E+00,  0.000000E+00,  0.000000E+00
, REULER = 90D, 90D, 90D
!                             adams_view_name='TowerSec08_G'
GRAPHICS/1208
, CYLINDER
, CM = 1208
, LENGTH =  8.239000E+00
, SIDES = 12
, RADIUS =  1.760000E+00
, SEG = 12
!                             adams_view_name='TwrSec08ToTwrSecBelow_M'
MARKER/1308
, PART = 1108
, QP = -4.119500E+00,  0.000000E+00,  0.000000E+00
, REULER = 0D, 0D, 0D
!                             adams_view_name='TwrSec08ToTwrSecAbove_M'
MARKER/1408
, PART = 1108
, QP =  4.119500E+00,  0.000000E+00,  0.000000E+00
, REULER = 0D, 0D, 0D
!                             adams_view_name='TowerSec08CM_M'
MARKER/1508
, PART = 1108
, QP =  0.000000E+00,  0.000000E+00,  0.000000E+00
, REULER = 0D, 0D, 0D
!--------------------------- Tower: Tower Section 09 ---------------------------
!                             adams_view_name='UndeflTowerSec09_M'
MARKER/1909
, PART = 1000
, QP =  0.000000E+00,  0.000000E+00,  7.003149E+01
, REULER = 0D, 0D, 0D
!                             adams_view_name='TowerSec09_P'
PART/1109
, QG =  0.000000E+00,  0.000000E+00,  7.003149E+01
, ZG =  1.000000E+00,  0.000000E+00,  7.003149E+01
, XG =  0.000000E+00,  0.000000E+00,  7.103149E+01
, CM = 1509
, MASS =  7.018342E+03
, IP =  1.771936E+04,  4.856075E+04,  4.856075E+04
!                             adams_view_name='TowerSec09Elastic_M'
MARKER/1109
, PART = 1109
!                             adams_view_name='TowerSec09AeroHydro_M'
MARKER/1809
, PART = 1109
, QP = 0, 0, 0
, REULER = 90D, 90D, 90D
!                             adams_view_name='TowerSec09Graphics_M'
MARKER/1209
, PART = 1109
, QP = -4.119500E+00,  0.000000E+00,  0.000000E+00
, REULER = 90D, 90D, 90D
!                             adams_view_name='TowerSec09_G'
GRAPHICS/1209
, CYLINDER
, CM = 1209
, LENGTH =  8.239000E+00
, SIDES = 12
, RADIUS =  1.620000E+00
, SEG = 12
!                             adams_view_name='TwrSec09ToTwrSecBelow_M'
MARKER/1309
, PART = 1109
, QP = -4.119500E+00,  0.000000E+00,  0.000000E+00
, REULER = 0D, 0D, 0D
!                             adams_view_name='TwrSec09ToTwrSecAbove_M'
MARKER/1409
, PART = 1109
, QP =  4.119500E+00,  0.000000E+00,  0.000000E+00
, REULER = 0D, 0D, 0D
!                             adams_view_name='TowerSec09CM_M'
MARKER/1509
, PART = 1109
, QP =  0.000000E+00,  0.000000E+00,  0.000000E+00
, REULER = 0D, 0D, 0D
!--------------------------- Tower: Tower Section 10 ---------------------------
!                             adams_view_name='UndeflTowerSec10_M'
MARKER/1910
, PART = 1000
, QP =  0.000000E+00,  0.000000E+00,  7.827049E+01
, REULER = 0D, 0D, 0D
!                             adams_view_name='TowerSec10_P'
PART/1110
, QG =  0.000000E+00,  0.000000E+00,  7.827049E+01
, ZG =  1.000000E+00,  0.000000E+00,  7.827049E+01
, XG =  0.000000E+00,  0.000000E+00,  7.927049E+01
, CM = 1510
, MASS =  5.865426E+03
, IP =  1.240860E+04,  3.938361E+04,  3.938361E+04
!                             adams_view_name='TowerSec10Elastic_M'
MARKER/1110
, PART = 1110
!                             adams_view_name='TowerSec10AeroHydro_M'
MARKER/1810
, PART = 1110
, QP = 0, 0, 0
, REULER = 90D, 90D, 90D
!                             adams_view_name='TowerSec10Graphics_M'
MARKER/1210
, PART = 1110
, QP = -4.119500E+00,  0.000000E+00,  0.000000E+00
, REULER = 90D, 90D, 90D
!                             adams_view_name='TowerSec10_G'
GRAPHICS/1210
, CYLINDER
, CM = 1210
, LENGTH =  8.239000E+00
, SIDES = 12
, RADIUS =  1.480000E+00
, SEG = 12
!                             adams_view_name='TwrSec10ToTwrSecBelow_M'
MARKER/1310
, PART = 1110
, QP = -4.119500E+00,  0.000000E+00,  0.000000E+00
, REULER = 0D, 0D, 0D
!                             adams_view_name='TwrSec10ToTwrSecAbove_M'
MARKER/1410
, PART = 1110
, QP =  4.119500E+00,  0.000000E+00,  0.000000E+00
, REULER = 0D, 0D, 0D
!                             adams_view_name='TowerSec10CM_M'
MARKER/1510
, PART = 1110
, QP =  0.000000E+00,  0.000000E+00,  0.000000E+00
, REULER = 0D, 0D, 0D
!------------------------------ Tower: Tower-Top -------------------------------
!                             adams_view_name='TowerTop_P'
PART/1600
, QG =  0.000000E+00,  0.000000E+00,  8.239000E+01
, ZG =  0.000000E+00,  0.000000E+00,  8.339000E+01
, XG =  1.000000E+00,  0.000000E+00,  8.239000E+01
, CM = 1600
, MASS =  9.999000E-04
, IP =  9.999000E-04,  9.999000E-04,  9.999000E-04
!                             adams_view_name='TowerTopBasePlateCS_M'
MARKER/1600
, PART = 1600
!                             adams_view_name='TowerTopToTwrSecBelow_M'
MARKER/1500
, PART = 1600
, QP = 0, 0, 0
, REULER = 90D, 90D, 90D
!                             adams_view_name='YawBrBottom_M'
MARKER/1010
, PART = 1600
, QP = 0, 0, 0
, REULER = 0D, 180D, 0D
!----------------------------------- Nacelle -----------------------------------
!                             adams_view_name='Nacelle_P'
PART/2000
, QG =  0.000000E+00,  0.000000E+00,  8.239000E+01
, ZG =  0.000000E+00,  0.000000E+00,  8.339000E+01
, XG =  1.000000E+00,  0.000000E+00,  8.239000E+01
, CM = 2005
, MASS =  5.117000E+04
, IP =  9.999000E-04,  9.999000E-04,  4.805563E+04
!                             adams_view_name='NacelleCS_M'
MARKER/2000
, PART = 2000
!                             adams_view_name='NacelleCM_M'
MARKER/2005
, PART = 2000
, QP = -1.449000E-01,  0.000000E+00,  1.389000E+00
, REULER = 0, 0, 0
!                             adams_view_name='YawBrTop_M'
MARKER/2010
, PART = 2000
, QP = 0, 0, 0
, REULER = 0D, 180D, 0D
!                             adams_view_name='RFrlBrBottom_M'
MARKER/2030
, PART = 2000
, QP =  0.000000E+00,  0.000000E+00,  0.000000E+00
, ZP =  1.000000E+00,  0.000000E+00,  0.000000E+00
, XP =  0.000000E+00,  0.000000E+00,  1.000000E+00
!                             adams_view_name='TFrlBrBottom_M'
MARKER/2040
, PART = 2000
, QP =  0.000000E+00,  0.000000E+00,  0.000000E+00
, ZP =  1.000000E+00,  0.000000E+00,  0.000000E+00
, XP =  0.000000E+00,  0.000000E+00,  1.000000E+00
!                             adams_view_name='NacelleGraphics_M'
MARKER/2020
, PART = 2000
, QP =  2.500000E+00,  0.000000E+00,  1.610000E+00
, REULER = 90D, 90D, -90D
!                             adams_view_name='Nacelle_G'
GRAPHICS/2000
, FRUSTUM
, CM = 2020
, LENGTH = -5.000000E+00
, SIDES = 12
, TOP =  1.500000E+00
, BOTTOM =  1.200000E+00
, SEG = 12
!                             adams_view_name='Twr2Shft_G'
GRAPHICS/2010
, FRUSTUM
, CM = 2010
, LENGTH = -1.610000E+00
, SIDES = 12
, TOP =  7.050000E-01
, BOTTOM =  1.410000E+00
, SEG = 12
!------------------------------------ Tail -------------------------------------
!                             adams_view_name='TailBoom_P'
PART/5000
, QG =  0.000000E+00,  0.000000E+00,  8.239000E+01
, ZG =  0.000000E+00,  0.000000E+00,  8.339000E+01
, XG =  1.000000E+00,  0.000000E+00,  8.239000E+01
, CM = 5005
, MASS =  9.999000E-04
, IP =  9.999000E-04,  9.999000E-04,  9.999000E-04
!                             adams_view_name='TailBoomRef_M'
MARKER/5000
, PART = 5000
!                             adams_view_name='TailBoomCM_M'
MARKER/5005
, PART = 5000
, QP =  0.000000E+00,  0.000000E+00,  0.000000E+00
, ZP =  1.000000E+00,  0.000000E+00,  0.000000E+00
, XP =  0.000000E+00,  0.000000E+00,  1.000000E+00
!                             adams_view_name='TFrlBrTop_M'