!ADAMS/View model name: FAST certification Test #09: UAE Phase VI (downwind) with many DOFs with yaw ramp and a steady wind.
!This ADAMS dataset file was generated by FAST (v7.01.00a-bjj, 16-Feb-2012) on 22-Feb-2012 at 09:18:13.
!Turbine input data from file "Test09.fst".
!                             adams_view_name='CalcOuts_V'
VARIABLE/1, FUNCTION = USER(1)
!=================================== PARTS =====================================
!----------------------------------- Ground ------------------------------------
!                             adams_view_name='Ground_P'
PART/1
, GROUND
!                             adams_view_name='AeroDynGround_M'
MARKER/1
, PART = 1
, QP =  0.000000E+00,  0.000000E+00,  0.000000E+00
, REULER = 0D, 0D, 0D
!                             adams_view_name='InertialFrameCS_M'
MARKER/10
, PART = 1
!                             adams_view_name='InitPtfmOrientation_M'
MARKER/11
, PART = 1
, QP =  0.000000E+00,  0.000000E+00,  0.000000E+00
, ZP =  0.000000E+00,  0.000000E+00,  1.000000E+00
, XP =  1.000000E+00,  0.000000E+00,  0.000000E+00
!                             adams_view_name='TailFinFloatingAero_M'
MARKER/500
, PART = 1
, FLOATING
!                             adams_view_name='PlatformLoadingFloating_M'
MARKER/800
, PART = 1
, FLOATING
!------------------ Ground: Floating Aero and Hydro for Tower ------------------
!                             adams_view_name='TowerSec01FloatingAeroHydro_M'
MARKER/801
, PART = 1
, FLOATING
!                             adams_view_name='TowerSec02FloatingAeroHydro_M'
MARKER/802
, PART = 1
, FLOATING
!                             adams_view_name='TowerSec03FloatingAeroHydro_M'
MARKER/803
, PART = 1
, FLOATING
!                             adams_view_name='TowerSec04FloatingAeroHydro_M'
MARKER/804
, PART = 1
, FLOATING
!                             adams_view_name='TowerSec05FloatingAeroHydro_M'
MARKER/805
, PART = 1
, FLOATING
!                             adams_view_name='TowerSec06FloatingAeroHydro_M'
MARKER/806
, PART = 1
, FLOATING
!                             adams_view_name='TowerSec07FloatingAeroHydro_M'
MARKER/807
, PART = 1
, FLOATING
!                             adams_view_name='TowerSec08FloatingAeroHydro_M'
MARKER/808
, PART = 1
, FLOATING
!                             adams_view_name='TowerSec09FloatingAeroHydro_M'
MARKER/809
, PART = 1
, FLOATING
!                             adams_view_name='TowerSec10FloatingAeroHydro_M'
MARKER/810
, PART = 1
, FLOATING
!                             adams_view_name='TowerSec11FloatingAeroHydro_M'
MARKER/811
, PART = 1
, FLOATING
!                             adams_view_name='TowerSec12FloatingAeroHydro_M'
MARKER/812
, PART = 1
, FLOATING
!                             adams_view_name='TowerSec13FloatingAeroHydro_M'
MARKER/813
, PART = 1
, FLOATING
!                             adams_view_name='TowerSec14FloatingAeroHydro_M'
MARKER/814
, PART = 1
, FLOATING
!                             adams_view_name='TowerSec15FloatingAeroHydro_M'
MARKER/815
, PART = 1
, FLOATING
!                             adams_view_name='TowerSec16FloatingAeroHydro_M'
MARKER/816
, PART = 1
, FLOATING
!                             adams_view_name='TowerSec17FloatingAeroHydro_M'
MARKER/817
, PART = 1
, FLOATING
!                             adams_view_name='TowerSec18FloatingAeroHydro_M'
MARKER/818
, PART = 1
, FLOATING
!                             adams_view_name='TowerSec19FloatingAeroHydro_M'
MARKER/819
, PART = 1
, FLOATING
!                             adams_view_name='TowerSec20FloatingAeroHydro_M'
MARKER/820
, PART = 1
, FLOATING
!                             adams_view_name='TowerSec21FloatingAeroHydro_M'
MARKER/821
, PART = 1
, FLOATING
!--------------------- Ground: Floating Aero for Blade 1 -----------------------
!                             adams_view_name='Bld1Sec01FloatingAero_M'
MARKER/101
, PART = 1
, FLOATING
!                             adams_view_name='Bld1Sec02FloatingAero_M'
MARKER/102
, PART = 1
, FLOATING
!                             adams_view_name='Bld1Sec03FloatingAero_M'
MARKER/103
, PART = 1
, FLOATING
!                             adams_view_name='Bld1Sec04FloatingAero_M'
MARKER/104
, PART = 1
, FLOATING
!                             adams_view_name='Bld1Sec05FloatingAero_M'
MARKER/105
, PART = 1
, FLOATING
!                             adams_view_name='Bld1Sec06FloatingAero_M'
MARKER/106
, PART = 1
, FLOATING
!                             adams_view_name='Bld1Sec07FloatingAero_M'
MARKER/107
, PART = 1
, FLOATING
!                             adams_view_name='Bld1Sec08FloatingAero_M'
MARKER/108
, PART = 1
, FLOATING
!                             adams_view_name='Bld1Sec09FloatingAero_M'
MARKER/109
, PART = 1
, FLOATING
!                             adams_view_name='Bld1Sec10FloatingAero_M'
MARKER/110
, PART = 1
, FLOATING
!                             adams_view_name='Bld1Sec11FloatingAero_M'
MARKER/111
, PART = 1
, FLOATING
!                             adams_view_name='Bld1Sec12FloatingAero_M'
MARKER/112
, PART = 1
, FLOATING
!                             adams_view_name='Bld1Sec13FloatingAero_M'
MARKER/113
, PART = 1
, FLOATING
!                             adams_view_name='Bld1Sec14FloatingAero_M'
MARKER/114
, PART = 1
, FLOATING
!                             adams_view_name='Bld1Sec15FloatingAero_M'
MARKER/115
, PART = 1
, FLOATING
!                             adams_view_name='Bld1Sec16FloatingAero_M'
MARKER/116
, PART = 1
, FLOATING
!                             adams_view_name='Bld1Sec17FloatingAero_M'
MARKER/117
, PART = 1
, FLOATING
!                             adams_view_name='Bld1Sec18FloatingAero_M'
MARKER/118
, PART = 1
, FLOATING
!                             adams_view_name='Bld1Sec19FloatingAero_M'
MARKER/119
, PART = 1
, FLOATING
!                             adams_view_name='Bld1Sec20FloatingAero_M'
MARKER/120
, PART = 1
, FLOATING
!                             adams_view_name='Bld1Sec21FloatingAero_M'
MARKER/121
, PART = 1
, FLOATING
!                             adams_view_name='TipBrake1FloatingAero_M'
MARKER/501
, PART = 1
, FLOATING
!--------------------- Ground: Floating Aero for Blade 2 -----------------------
!                             adams_view_name='Bld2Sec01FloatingAero_M'
MARKER/201
, PART = 1
, FLOATING
!                             adams_view_name='Bld2Sec02FloatingAero_M'
MARKER/202
, PART = 1
, FLOATING
!                             adams_view_name='Bld2Sec03FloatingAero_M'
MARKER/203
, PART = 1
, FLOATING
!                             adams_view_name='Bld2Sec04FloatingAero_M'
MARKER/204
, PART = 1
, FLOATING
!                             adams_view_name='Bld2Sec05FloatingAero_M'
MARKER/205
, PART = 1
, FLOATING
!                             adams_view_name='Bld2Sec06FloatingAero_M'
MARKER/206
, PART = 1
, FLOATING
!                             adams_view_name='Bld2Sec07FloatingAero_M'
MARKER/207
, PART = 1
, FLOATING
!                             adams_view_name='Bld2Sec08FloatingAero_M'
MARKER/208
, PART = 1
, FLOATING
!                             adams_view_name='Bld2Sec09FloatingAero_M'
MARKER/209
, PART = 1
, FLOATING
!                             adams_view_name='Bld2Sec10FloatingAero_M'
MARKER/210
, PART = 1
, FLOATING
!                             adams_view_name='Bld2Sec11FloatingAero_M'
MARKER/211
, PART = 1
, FLOATING
!                             adams_view_name='Bld2Sec12FloatingAero_M'
MARKER/212
, PART = 1
, FLOATING
!                             adams_view_name='Bld2Sec13FloatingAero_M'
MARKER/213
, PART = 1
, FLOATING
!                             adams_view_name='Bld2Sec14FloatingAero_M'
MARKER/214
, PART = 1
, FLOATING
!                             adams_view_name='Bld2Sec15FloatingAero_M'
MARKER/215
, PART = 1
, FLOATING
!                             adams_view_name='Bld2Sec16FloatingAero_M'
MARKER/216
, PART = 1
, FLOATING
!                             adams_view_name='Bld2Sec17FloatingAero_M'
MARKER/217
, PART = 1
, FLOATING
!                             adams_view_name='Bld2Sec18FloatingAero_M'
MARKER/218
, PART = 1
, FLOATING
!                             adams_view_name='Bld2Sec19FloatingAero_M'
MARKER/219
, PART = 1
, FLOATING
!                             adams_view_name='Bld2Sec20FloatingAero_M'
MARKER/220
, PART = 1
, FLOATING
!                             adams_view_name='Bld2Sec21FloatingAero_M'
MARKER/221
, PART = 1
, FLOATING
!                             adams_view_name='TipBrake2FloatingAero_M'
MARKER/502
, PART = 1
, FLOATING
!------------------------------- Ground GRAPHICS -------------------------------
!                             adams_view_name='Ground_G'
GRAPHICS/1
, CIRCLE
, CM = 1
, RADIUS =  5.029000E+00
, SEG = 12
!------------------------------ Support Platform -------------------------------
!                             adams_view_name='Platform_P'
PART/1000
, QG =  0.000000E+00,  0.000000E+00,  0.000000E+00
, ZG =  0.000000E+00,  0.000000E+00,  1.000000E+00
, XG =  1.000000E+00,  0.000000E+00,  0.000000E+00
, CM = 1005
, MASS =  9.999000E-04
, IP =  9.999000E-04,  9.999000E-04,  9.999000E-04
!                             adams_view_name='PlatformRef_M'
MARKER/1000
, PART = 1000
!                             adams_view_name='PlatformCM_M'
MARKER/1005
, PART = 1000
, QP =  0.000000E+00,  0.000000E+00,  0.000000E+00
, REULER = 0D, 0D, 0D
!                             adams_view_name='UndeflTwrTop_M'
MARKER/1030
, PART = 1000
, QP =  0.000000E+00,  0.000000E+00,  1.150000E+01
, REULER = 0D, 0D, 0D
!------------------------------------ Tower ------------------------------------
!------------------------------ Tower: Tower Base ------------------------------
!                             adams_view_name='TowerBaseCS_M'
MARKER/1100
, PART = 1000
, QP =  0.000000E+00,  0.000000E+00,  0.000000E+00
, REULER = 0D, 0D, 0D
!                             adams_view_name='TwrBaseToTwrSec01_M'
MARKER/1400
, PART = 1000
, QP =  0.000000E+00,  0.000000E+00,  0.000000E+00
, REULER = 90D, 90D, 90D
!                             adams_view_name='TowerBase_G'
GRAPHICS/1400
, CYLINDER
, CM = 1100
, LENGTH =  0.000000E+00
, SIDES = 12
, RADIUS =  3.048000E-01
, SEG = 12
!--------------------------- Tower: Tower Section 01 ---------------------------
!                             adams_view_name='UndeflTowerSec01_M'
MARKER/1901
, PART = 1000
, QP =  0.000000E+00,  0.000000E+00,  2.738095E-01
, REULER = 0D, 0D, 0D
!                             adams_view_name='TowerSec01_P'
PART/1101
, QG =  0.000000E+00,  0.000000E+00,  2.738095E-01
, ZG =  1.000000E+00,  0.000000E+00,  2.738095E-01
, XG =  0.000000E+00,  0.000000E+00,  1.273810E+00
, CM = 1501
, MASS =  1.426377E+02
, IP =  9.999000E-04,  3.565570E+00,  3.565570E+00
!                             adams_view_name='TowerSec01Elastic_M'
MARKER/1101
, PART = 1101
!                             adams_view_name='TowerSec01AeroHydro_M'
MARKER/1801
, PART = 1101
, QP = 0, 0, 0
, REULER = 90D, 90D, 90D
!                             adams_view_name='TowerSec01Graphics_M'
MARKER/1201
, PART = 1101
, QP = -2.738095E-01,  0.000000E+00,  0.000000E+00
, REULER = 90D, 90D, 90D
!                             adams_view_name='TowerSec01_G'
GRAPHICS/1201
, CYLINDER
, CM = 1201
, LENGTH =  5.476190E-01
, SIDES = 12
, RADIUS =  3.023809E-01
, SEG = 12
!                             adams_view_name='TwrSec01ToTwrSecBelow_M'
MARKER/1301
, PART = 1101
, QP = -2.738095E-01,  0.000000E+00,  0.000000E+00
, REULER = 0D, 0D, 0D
!                             adams_view_name='TwrSec01ToTwrSecAbove_M'
MARKER/1401
, PART = 1101
, QP =  2.738095E-01,  0.000000E+00,  0.000000E+00
, REULER = 0D, 0D, 0D
!                             adams_view_name='TowerSec01CM_M'
MARKER/1501
, PART = 1101
, QP =  0.000000E+00,  0.000000E+00,  0.000000E+00
, REULER = 0D, 0D, 0D
!--------------------------- Tower: Tower Section 02 ---------------------------
!                             adams_view_name='UndeflTowerSec02_M'
MARKER/1902
, PART = 1000
, QP =  0.000000E+00,  0.000000E+00,  8.214286E-01
, REULER = 0D, 0D, 0D
!                             adams_view_name='TowerSec02_P'
PART/1102
, QG =  0.000000E+00,  0.000000E+00,  8.214286E-01
, ZG =  1.000000E+00,  0.000000E+00,  8.214286E-01
, XG =  0.000000E+00,  0.000000E+00,  1.821429E+00
, CM = 1502
, MASS =  1.426377E+02
, IP =  9.999000E-04,  3.565570E+00,  3.565570E+00
!                             adams_view_name='TowerSec02Elastic_M'
MARKER/1102
, PART = 1102
!                             adams_view_name='TowerSec02AeroHydro_M'
MARKER/1802
, PART = 1102
, QP = 0, 0, 0
, REULER = 90D, 90D, 90D
!                             adams_view_name='TowerSec02Graphics_M'
MARKER/1202
, PART = 1102
, QP = -2.738095E-01,  0.000000E+00,  0.000000E+00
, REULER = 90D, 90D, 90D
!                             adams_view_name='TowerSec02_G'
GRAPHICS/1202
, CYLINDER
, CM = 1202
, LENGTH =  5.476190E-01
, SIDES = 12
, RADIUS =  2.975429E-01
, SEG = 12
!                             adams_view_name='TwrSec02ToTwrSecBelow_M'
MARKER/1302
, PART = 1102
, QP = -2.738095E-01,  0.000000E+00,  0.000000E+00
, REULER = 0D, 0D, 0D
!                             adams_view_name='TwrSec02ToTwrSecAbove_M'
MARKER/1402
, PART = 1102
, QP =  2.738095E-01,  0.000000E+00,  0.000000E+00
, REULER = 0D, 0D, 0D
!                             adams_view_name='TowerSec02CM_M'
MARKER/1502
, PART = 1102
, QP =  0.000000E+00,  0.000000E+00,  0.000000E+00
, REULER = 0D, 0D, 0D
!--------------------------- Tower: Tower Section 03 ---------------------------
!                             adams_view_name='UndeflTowerSec03_M'
MARKER/1903
, PART = 1000
, QP =  0.000000E+00,  0.000000E+00,  1.369048E+00
, REULER = 0D, 0D, 0D
!                             adams_view_name='TowerSec03_P'
PART/1103
, QG =  0.000000E+00,  0.000000E+00,  1.369048E+00
, ZG =  1.000000E+00,  0.000000E+00,  1.369048E+00
, XG =  0.000000E+00,  0.000000E+00,  2.369048E+00
, CM = 1503
, MASS =  1.426377E+02
, IP =  9.999000E-04,  3.565570E+00,  3.565570E+00
!                             adams_view_name='TowerSec03Elastic_M'
MARKER/1103
, PART = 1103
!                             adams_view_name='TowerSec03AeroHydro_M'
MARKER/1803
, PART = 1103
, QP = 0, 0, 0
, REULER = 90D, 90D, 90D
!                             adams_view_name='TowerSec03Graphics_M'
MARKER/1203
, PART = 1103
, QP = -2.738095E-01,  0.000000E+00,  0.000000E+00
, REULER = 90D, 90D, 90D
!                             adams_view_name='TowerSec03_G'
GRAPHICS/1203
, CYLINDER
, CM = 1203
, LENGTH =  5.476190E-01
, SIDES = 12
, RADIUS =  2.927048E-01
, SEG = 12
!                             adams_view_name='TwrSec03ToTwrSecBelow_M'
MARKER/1303
, PART = 1103
, QP = -2.738095E-01,  0.000000E+00,  0.000000E+00
, REULER = 0D, 0D, 0D
!                             adams_view_name='TwrSec03ToTwrSecAbove_M'
MARKER/1403
, PART = 1103
, QP =  2.738095E-01,  0.000000E+00,  0.000000E+00
, REULER = 0D, 0D, 0D
!                             adams_view_name='TowerSec03CM_M'
MARKER/1503
, PART = 1103
, QP =  0.000000E+00,  0.000000E+00,  0.000000E+00
, REULER = 0D, 0D, 0D
!--------------------------- Tower: Tower Section 04 ---------------------------
!                             adams_view_name='UndeflTowerSec04_M'
MARKER/1904
, PART = 1000
, QP =  0.000000E+00,  0.000000E+00,  1.916667E+00
, REULER = 0D, 0D, 0D
!                             adams_view_name='TowerSec04_P'
PART/1104
, QG =  0.000000E+00,  0.000000E+00,  1.916667E+00
, ZG =  1.000000E+00,  0.000000E+00,  1.916667E+00
, XG =  0.000000E+00,  0.000000E+00,  2.916667E+00
, CM = 1504
, MASS =  1.426377E+02
, IP =  9.999000E-04,  3.565570E+00,  3.565570E+00
!                             adams_view_name='TowerSec04Elastic_M'
MARKER/1104
, PART = 1104
!                             adams_view_name='TowerSec04AeroHydro_M'
MARKER/1804
, PART = 1104
, QP = 0, 0, 0
, REULER = 90D, 90D, 90D
!                             adams_view_name='TowerSec04Graphics_M'
MARKER/1204
, PART = 1104
, QP = -2.738095E-01,  0.000000E+00,  0.000000E+00
, REULER = 90D, 90D, 90D
!                             adams_view_name='TowerSec04_G'
GRAPHICS/1204
, CYLINDER
, CM = 1204
, LENGTH =  5.476190E-01
, SIDES = 12
, RADIUS =  2.878667E-01
, SEG = 12
!                             adams_view_name='TwrSec04ToTwrSecBelow_M'
MARKER/1304
, PART = 1104
, QP = -2.738095E-01,  0.000000E+00,  0.000000E+00
, REULER = 0D, 0D, 0D
!                             adams_view_name='TwrSec04ToTwrSecAbove_M'
MARKER/1404
, PART = 1104
, QP =  2.738095E-01,  0.000000E+00,  0.000000E+00
, REULER = 0D, 0D, 0D
!                             adams_view_name='TowerSec04CM_M'
MARKER/1504
, PART = 1104
, QP =  0.000000E+00,  0.000000E+00,  0.000000E+00
, REULER = 0D, 0D, 0D
!--------------------------- Tower: Tower Section 05 ---------------------------
!                             adams_view_name='UndeflTowerSec05_M'
MARKER/1905
, PART = 1000
, QP =  0.000000E+00,  0.000000E+00,  2.464286E+00
, REULER = 0D, 0D, 0D
!                             adams_view_name='TowerSec05_P'
PART/1105
, QG =  0.000000E+00,  0.000000E+00,  2.464286E+00
, ZG =  1.000000E+00,  0.000000E+00,  2.464286E+00
, XG =  0.000000E+00,  0.000000E+00,  3.464286E+00
, CM = 1505
, MASS =  1.426377E+02
, IP =  9.999000E-04,  3.565570E+00,  3.565570E+00
!                             adams_view_name='TowerSec05Elastic_M'
MARKER/1105
, PART = 1105
!                             adams_view_name='TowerSec05AeroHydro_M'
MARKER/1805
, PART = 1105
, QP = 0, 0, 0
, REULER = 90D, 90D, 90D
!                             adams_view_name='TowerSec05Graphics_M'
MARKER/1205
, PART = 1105
, QP = -2.738095E-01,  0.000000E+00,  0.000000E+00
, REULER = 90D, 90D, 90D
!                             adams_view_name='TowerSec05_G'
GRAPHICS/1205
, CYLINDER
, CM = 1205
, LENGTH =  5.476190E-01
, SIDES = 12
, RADIUS =  2.830286E-01
, SEG = 12
!                             adams_view_name='TwrSec05ToTwrSecBelow_M'
MARKER/1305
, PART = 1105
, QP = -2.738095E-01,  0.000000E+00,  0.000000E+00
, REULER = 0D, 0D, 0D
!                             adams_view_name='TwrSec05ToTwrSecAbove_M'
MARKER/1405
, PART = 1105
, QP =  2.738095E-01,  0.000000E+00,  0.000000E+00
, REULER = 0D, 0D, 0D
!                             adams_view_name='TowerSec05CM_M'
MARKER/1505
, PART = 1105
, QP =  0.000000E+00,  0.000000E+00,  0.000000E+00
, REULER = 0D, 0D, 0D
!--------------------------- Tower: Tower Section 06 ---------------------------
!                             adams_view_name='UndeflTowerSec06_M'
MARKER/1906
, PART = 1000
, QP =  0.000000E+00,  0.000000E+00,  3.011905E+00
, REULER = 0D, 0D, 0D
!                             adams_view_name='TowerSec06_P'
PART/1106
, QG =  0.000000E+00,  0.000000E+00,  3.011905E+00
, ZG =  1.000000E+00,  0.000000E+00,  3.011905E+00
, XG =  0.000000E+00,  0.000000E+00,  4.011905E+00
, CM = 1506
, MASS =  1.426377E+02
, IP =  9.999000E-04,  3.565570E+00,  3.565570E+00
!                             adams_view_name='TowerSec06Elastic_M'
MARKER/1106
, PART = 1106
!                             adams_view_name='TowerSec06AeroHydro_M'
MARKER/1806
, PART = 1106
, QP = 0, 0, 0
, REULER = 90D, 90D, 90D
!                             adams_view_name='TowerSec06Graphics_M'
MARKER/1206
, PART = 1106
, QP = -2.738095E-01,  0.000000E+00,  0.000000E+00
, REULER = 90D, 90D, 90D
!                             adams_view_name='TowerSec06_G'
GRAPHICS/1206
, CYLINDER
, CM = 1206
, LENGTH =  5.476190E-01
, SIDES = 12
, RADIUS =  2.781905E-01
, SEG = 12
!                             adams_view_name='TwrSec06ToTwrSecBelow_M'
MARKER/1306
, PART = 1106
, QP = -2.738095E-01,  0.000000E+00,  0.000000E+00
, REULER = 0D, 0D, 0D
!                             adams_view_name='TwrSec06ToTwrSecAbove_M'
MARKER/1406
, PART = 1106
, QP =  2.738095E-01,  0.000000E+00,  0.000000E+00
, REULER = 0D, 0D, 0D
!                             adams_view_name='TowerSec06CM_M'
MARKER/1506
, PART = 1106
, QP =  0.000000E+00,  0.000000E+00,  0.000000E+00
, REULER = 0D, 0D, 0D
!--------------------------- Tower: Tower Section 07 ---------------------------
!                             adams_view_name='UndeflTowerSec07_M'
MARKER/1907
, PART = 1000
, QP =  0.000000E+00,  0.000000E+00,  3.559524E+00
, REULER = 0D, 0D, 0D
!                             adams_view_name='TowerSec07_P'
PART/1107
, QG =  0.000000E+00,  0.000000E+00,  3.559524E+00
, ZG =  1.000000E+00,  0.000000E+00,  3.559524E+00
, XG =  0.000000E+00,  0.000000E+00,  4.559524E+00
, CM = 1507
, MASS =  1.333357E+02
, IP =  9.999000E-04,  3.333108E+00,  3.333108E+00
!                             adams_view_name='TowerSec07Elastic_M'
MARKER/1107
, PART = 1107
!                             adams_view_name='TowerSec07AeroHydro_M'
MARKER/1807
, PART = 1107
, QP = 0, 0, 0
, REULER = 90D, 90D, 90D
!                             adams_view_name='TowerSec07Graphics_M'
MARKER/1207
, PART = 1107
, QP = -2.738095E-01,  0.000000E+00,  0.000000E+00
, REULER = 90D, 90D, 90D
!                             adams_view_name='TowerSec07_G'
GRAPHICS/1207
, CYLINDER
, CM = 1207
, LENGTH =  5.476190E-01
, SIDES = 12
, RADIUS =  2.733524E-01
, SEG = 12
!                             adams_view_name='TwrSec07ToTwrSecBelow_M'
MARKER/1307
, PART = 1107
, QP = -2.738095E-01,  0.000000E+00,  0.000000E+00
, REULER = 0D, 0D, 0D
!                             adams_view_name='TwrSec07ToTwrSecAbove_M'
MARKER/1407
, PART = 1107
, QP =  2.738095E-01,  0.000000E+00,  0.000000E+00
, REULER = 0D, 0D, 0D
!                             adams_view_name='TowerSec07CM_M'
MARKER/1507
, PART = 1107
, QP =  0.000000E+00,  0.000000E+00,  0.000000E+00
, REULER = 0D, 0D, 0D
!--------------------------- Tower: Tower Section 08 ---------------------------
!                             adams_view_name='UndeflTowerSec08_M'
MARKER/1908
, PART = 1000
, QP =  0.000000E+00,  0.000000E+00,  4.107143E+00
, REULER = 0D, 0D, 0D
!                             adams_view_name='TowerSec08_P'
PART/1108
, QG =  0.000000E+00,  0.000000E+00,  4.107143E+00
, ZG =  1.000000E+00,  0.000000E+00,  4.107143E+00
, XG =  0.000000E+00,  0.000000E+00,  5.107143E+00
, CM = 1508
, MASS =  1.134167E+02
, IP =  9.999000E-04,  2.835322E+00,  2.835322E+00
!                             adams_view_name='TowerSec08Elastic_M'
MARKER/1108
, PART = 1108
!                             adams_view_name='TowerSec08AeroHydro_M'
MARKER/1808
, PART = 1108
, QP = 0, 0, 0
, REULER = 90D, 90D, 90D
!                             adams_view_name='TowerSec08Graphics_M'
MARKER/1208
, PART = 1108
, QP = -2.738095E-01,  0.000000E+00,  0.000000E+00
, REULER = 90D, 90D, 90D
!                             adams_view_name='TowerSec08_G'
GRAPHICS/1208
, CYLINDER
, CM = 1208
, LENGTH =  5.476190E-01
, SIDES = 12
, RADIUS =  2.685143E-01
, SEG = 12
!                             adams_view_name='TwrSec08ToTwrSecBelow_M'
MARKER/1308
, PART = 1108
, QP = -2.738095E-01,  0.000000E+00,  0.000000E+00
, REULER = 0D, 0D, 0D
!                             adams_view_name='TwrSec08ToTwrSecAbove_M'
MARKER/1408
, PART = 1108
, QP =  2.738095E-01,  0.000000E+00,  0.000000E+00
, REULER = 0D, 0D, 0D
!                             adams_view_name='TowerSec08CM_M'
MARKER/1508
, PART = 1108
, QP =  0.000000E+00,  0.000000E+00,  0.000000E+00
, REULER = 0D, 0D, 0D
!--------------------------- Tower: Tower Section 09 ---------------------------
!                             adams_view_name='UndeflTowerSec09_M'
MARKER/1909
, PART = 1000
, QP =  0.000000E+00,  0.000000E+00,  4.654762E+00
, REULER = 0D, 0D, 0D
!                             adams_view_name='TowerSec09_P'
PART/1109
, QG =  0.000000E+00,  0.000000E+00,  4.654762E+00
, ZG =  1.000000E+00,  0.000000E+00,  4.654762E+00
, XG =  0.000000E+00,  0.000000E+00,  5.654762E+00
, CM = 1509
, MASS =  1.134167E+02
, IP =  9.999000E-04,  2.835322E+00,  2.835322E+00
!                             adams_view_name='TowerSec09Elastic_M'
MARKER/1109
, PART = 1109
!                             adams_view_name='TowerSec09AeroHydro_M'
MARKER/1809
, PART = 1109
, QP = 0, 0, 0
, REULER = 90D, 90D, 90D
!                             adams_view_name='TowerSec09Graphics_M'
MARKER/1209
, PART = 1109
, QP = -2.738095E-01,  0.000000E+00,  0.000000E+00
, REULER = 90D, 90D, 90D
!                             adams_view_name='TowerSec09_G'
GRAPHICS/1209
, CYLINDER
, CM = 1209
, LENGTH =  5.476190E-01
, SIDES = 12
, RADIUS =  2.636762E-01
, SEG = 12
!                             adams_view_name='TwrSec09ToTwrSecBelow_M'
MARKER/1309
, PART = 1109
, QP = -2.738095E-01,  0.000000E+00,  0.000000E+00
, REULER = 0D, 0D, 0D
!                             adams_view_name='TwrSec09ToTwrSecAbove_M'
MARKER/1409
, PART = 1109
, QP =  2.738095E-01,  0.000000E+00,  0.000000E+00
, REULER = 0D, 0D, 0D
!                             adams_view_name='TowerSec09CM_M'
MARKER/1509
, PART = 1109
, QP =  0.000000E+00,  0.000000E+00,  0.000000E+00
, REULER = 0D, 0D, 0D
!--------------------------- Tower: Tower Section 10 ---------------------------
!                             adams_view_name='UndeflTowerSec10_M'
MARKER/1910
, PART = 1000
, QP =  0.000000E+00,  0.000000E+00,  5.202381E+00
, REULER = 0D, 0D, 0D
!                             adams_view_name='TowerSec10_P'
PART/1110
, QG =  0.000000E+00,  0.000000E+00,  5.202381E+00
, ZG =  1.000000E+00,  0.000000E+00,  5.202381E+00
, XG =  0.000000E+00,  0.000000E+00,  6.202381E+00
, CM = 1510
, MASS =  1.134167E+02
, IP =  9.999000E-04,  2.835322E+00,  2.835322E+00
!                             adams_view_name='TowerSec10Elastic_M'
MARKER/1110
, PART = 1110
!                             adams_view_name='TowerSec10AeroHydro_M'
MARKER/1810
, PART = 1110
, QP = 0, 0, 0
, REULER = 90D, 90D, 90D
!                             adams_view_name='TowerSec10Graphics_M'
MARKER/1210
, PART = 1110
, QP = -2.738095E-01,  0.000000E+00,  0.000000E+00
, REULER = 90D, 90D, 90D
!                             adams_view_name='TowerSec10_G'
GRAPHICS/1210
, CYLINDER
, CM = 1210
, LENGTH =  5.476190E-01
, SIDES = 12
, RADIUS =  2.588381E-01
, SEG = 12
!                             adams_view_name='TwrSec10ToTwrSecBelow_M'
MARKER/1310
, PART = 1110
, QP = -2.738095E-01,  0.000000E+00,  0.000000E+00
, REULER = 0D, 0D, 0D
!                             adams_view_name='TwrSec10ToTwrSecAbove_M'
MARKER/1410
, PART = 1110
, QP =  2.738095E-01,  0.000000E+00,  0.000000E+00
, REULER = 0D, 0D, 0D
!                             adams_view_name='TowerSec10CM_M'
MARKER/1510
, PART = 1110
, QP =  0.000000E+00,  0.000000E+00,  0.000000E+00
, REULER = 0D, 0D, 0D
!--------------------------- Tower: Tower Section 11 ---------------------------
!                             adams_view_name='UndeflTowerSec11_M'
MARKER/1911
, PART = 1000
, QP =  0.000000E+00,  0.000000E+00,  5.750000E+00
, REULER = 0D, 0D, 0D
!                             adams_view_name='TowerSec11_P'
PART/1111
, QG =  0.000000E+00,  0.000000E+00,  5.750000E+00
, ZG =  1.000000E+00,  0.000000E+00,  5.750000E+00
, XG =  0.000000E+00,  0.000000E+00,  6.750000E+00
, CM = 1511
, MASS =  1.134167E+02
, IP =  9.999000E-04,  2.835322E+00,  2.835322E+00
!                             adams_view_name='TowerSec11Elastic_M'
MARKER/1111
, PART = 1111
!                             adams_view_name='TowerSec11AeroHydro_M'
MARKER/1811
, PART = 1111
, QP = 0, 0, 0
, REULER = 90D, 90D, 90D
!                             adams_view_name='TowerSec11Graphics_M'
MARKER/1211
, PART = 1111
, QP = -2.738095E-01,  0.000000E+00,  0.000000E+00
, REULER = 90D, 90D, 90D
!                             adams_view_name='TowerSec11_G'
GRAPHICS/1211
, CYLINDER
, CM = 1211
, LENGTH =  5.476190E-01
, SIDES = 12
, RADIUS =  2.540000E-01
, SEG = 12
!                             adams_view_name='TwrSec11ToTwrSecBelow_M'
MARKER/1311
, PART = 1111
, QP = -2.738095E-01,  0.000000E+00,  0.000000E+00
, REULER = 0D, 0D, 0D
!                             adams_view_name='TwrSec11ToTwrSecAbove_M'
MARKER/1411
, PART = 1111
, QP =  2.738095E-01,  0.000000E+00,  0.000000E+00
, REULER = 0D, 0D, 0D
!                             adams_view_name='TowerSec11CM_M'
MARKER/1511
, PART = 1111
, QP =  0.000000E+00,  0.000000E+00,  0.000000E+00
, REULER = 0D, 0D, 0D
!--------------------------- Tower: Tower Section 12 ---------------------------
!                             adams_view_name='UndeflTowerSec12_M'
MARKER/1912
, PART = 1000
, QP =  0.000000E+00,  0.000000E+00,  6.297618E+00
, REULER = 0D, 0D, 0D
!                             adams_view_name='TowerSec12_P'
PART/1112
, QG =  0.000000E+00,  0.000000E+00,  6.297618E+00
, ZG =  1.000000E+00,  0.000000E+00,  6.297618E+00
, XG =  0.000000E+00,  0.000000E+00,  7.297618E+00
, CM = 1512
, MASS =  1.134167E+02
, IP =  9.999000E-04,  2.835322E+00,  2.835322E+00
!                             adams_view_name='TowerSec12Elastic_M'
MARKER/1112
, PART = 1112
!                             adams_view_name='TowerSec12AeroHydro_M'
MARKER/1812
, PART = 1112
, QP = 0, 0, 0
, REULER = 90D, 90D, 90D
!                             adams_view_name='TowerSec12Graphics_M'
MARKER/1212
, PART = 1112
, QP = -2.738095E-01,  0.000000E+00,  0.000000E+00